/*--------------------------------*- C++ -*----------------------------------*\
  =========                 |
  \\      /  F ield         | OpenFOAM: The Open Source CFD Toolbox
   \\    /   O peration     | Website:  https://openfoam.org
    \\  /    A nd           | Version:  7
     \\/     M anipulation  |
-------------------------------------------------------------------------------
Description
    Writes out surface files with interpolated field data in VTK format, e.g.
    cutting planes, iso-surfaces and patch boundary surfaces.

    This file includes a selection of example surfaces, each of which the user
    should configure and/or remove.

\*---------------------------------------------------------------------------*/
FoamFile
{
    version     2.0;
    format      ascii;
    class       dictionary;
    location    "constant";
    object      setZ0;
}
// * * * * * * * * * * * * * * * * * * * * * * * * * * * * * * * * * * * * * //

    inputFile     "constant/triSurface/terrain.obj" ;
    inputMtl      "constant/triSurface/terrain.mtl";
    
    /*landcovers_list   
    (Terrain,Water,Green,Sand);*/
    
    z0_values      
    {  
        Terrain     0.1;
        Water       0.7;
        Green       0.6;
        Sand        0.2;
    }


// ************************************************************************* //
