/*--------------------------------*- C++ -*----------------------------------*\
  =========                 |
  \\      /  F ield         | OpenFOAM: The Open Source CFD Toolbox
   \\    /   O peration     | Website:  https://openfoam.org
    \\  /    A nd           | Version:  7
     \\/     M anipulation  |
\*---------------------------------------------------------------------------*/
FoamFile
{
    version     2.0;
    format      ascii;
    class       featureEdgeMesh;
    location    "constant/triSurface";
    object      DelftCampus_LoD2_EWI_xyz0_rotate.eMesh;
}
// * * * * * * * * * * * * * * * * * * * * * * * * * * * * * * * * * * * * * //


// points:

20328
(
(402.519989014 587.914978027 14.079000473)
(402.519989014 587.914978027 1.95000004768)
(391.212005615 592.471984863 9.3170003891)
(391.212005615 592.471984863 1.94999992847)
(390.367004395 590.036987305 9.3170003891)
(390.367004395 590.036987305 1.94999992847)
(381.494995117 587.882019043 5.33501005173)
(379.605010986 594.521972656 1.95000004768)
(380.20199585 596.929992676 12.3719997406)
(380.20199585 596.929992676 1.9500002861)
(377.351989746 598.101989746 12.3809995651)
(365.99899292 602.791992188 12.3529996872)
(363.054992676 604.177978516 12.3800001144)
(363.182006836 604.12902832 12.3789997101)
(363.182006836 604.12902832 1.94999861717)
(337.598999023 614.651977539 12.3269996643)
(334.709991455 615.82800293 12.3199996948)
(332.815002441 582.99798584 16.361000061)
(332.390014648 581.601013184 16.3560009003)
(335.37298584 580.429016113 16.3560009003)
(335.334014893 580.346984863 16.3549995422)
(382.95300293 590.577026367 1.9500002861)
(384.891998291 589.732971191 1.94999992847)
(366.059997559 602.940979004 7.07400989532)
(366.059997559 602.940979004 1.95000004768)
(365.998962402 602.791992188 1.95000004768)
(377.417999268 598.211975098 7.04800987244)
(377.417999268 598.212036133 1.95000016689)
(377.263000488 598.145996094 12.3809995651)
(380.539001465 596.781005859 12.3710002899)
(380.539001465 596.781005859 1.95000016689)
(329.351013184 594.82598877 7.33001995087)
(311.414001465 601.283996582 14.079000473)
(308.131988525 593.406005859 14.079000473)
(308.131988525 593.406005859 1.95000004768)
(351.82901001 608.818969727 7.06201982498)
(351.829040527 608.818969727 1.95000016689)
(320.027008057 622.04901123 2.31102991104)
(320.027008057 622.04901123 1.95000004768)
(334.765991211 615.927978516 6.99202013016)
(334.765991211 615.927978516 1.94999992847)
(334.648986816 615.856994629 12.3199996948)
(337.643005371 614.741027832 7.0470199585)
(337.643005371 614.741027832 1.94999873638)
(336.638000488 612.45300293 12.3620004654)
(405.553009033 610.747009277 43.2890014648)
(379.605010986 594.521972656 12.3240003586)
(414.214996338 615.741027832 6.72800016403)
(414.21496582 615.741027832 1.95000004768)
(394.013000488 558.193969727 14.079000473)
(398.691986084 609.763977051 41.236000061)
(398.101013184 608.331970215 41.2449989319)
(357.756988525 583.057983398 7.36101007462)
(354.894989014 584.395019531 7.31700992584)
(326.462005615 596.223022461 7.33201980591)
(333.660003662 613.453979492 12.3579998016)
(323.37399292 620.669006348 7.02102994919)
(308.192993164 593.20098877 14.079000473)
(308.192993164 593.20098877 1.95000004768)
(397.145996094 565.789001465 14.079000473)
(397.145996094 565.789001465 1.94999992847)
(394.79800415 569.143005371 14.079000473)
(402.713989258 587.710021973 14.079000473)
(396.488006592 596.952026367 41.9980010986)
(399.769012451 595.505004883 43.138999939)
(376.341003418 595.896972656 12.3339996338)
(368.833007812 577.916015625 14.079000473)
(371.860992432 576.302978516 14.079000473)
(372.191986084 577.119995117 7.30000019073)
(393.687011719 557.692016602 14.079000473)
(313.795013428 593.721984863 16.7450008392)
(318.265014648 591.604980469 16.767999649)
(319.82699585 595.42199707 16.7670001984)
(315.225006104 597.273010254 16.7439994812)
(332.390014648 581.601074219 1.95000004768)
(335.339416504 580.358337402 1.95000040531)
(337.37298584 585.301025391 16.3729991913)
(369.175994873 578.700012207 7.3870100975)
(341.660003662 585.125 15.9709997177)
(338.736999512 586.356994629 15.968000412)
(402.890014648 594.119018555 42.0279998779)
(404.596984863 598.034973145 42.0029983521)
(404.149993896 595.997009277 41.8819999695)
(394.415985107 591.257019043 14.079000473)
(395.355010986 594.62701416 39.2050018311)
(408.055999756 615.547973633 43.1349983215)
(405.045013428 616.822998047 42.1010017395)
(408.795013428 615.226989746 42.8740005493)
(397.447998047 601.361022949 41.4160003662)
(398.07901001 601.062988281 41.9659996033)
(377.240997314 589.638977051 6.94900989532)
(374.351989746 580.164001465 14.079000473)
(373.032012939 577.031982422 14.079000473)
(380.704986572 577.677978516 14.079000473)
(362.071990967 601.825012207 12.3940000534)
(364.944000244 600.45501709 12.3690004349)
(397.503997803 593.593994141 39.2019996643)
(340.980010986 583.340026855 15.9779996872)
(404.095001221 591.08001709 39.1899986267)
(323.446014404 590.732971191 16.3759994507)
(323.910003662 592.830993652 16.3829994202)
(362.061004639 600.79699707 7.07101011276)
(323.247009277 591.37298584 16.3780002594)
(324.479003906 589.643981934 18.295999527)
(324.971008301 589.208007812 18.295999527)
(333.532989502 585.307006836 16.7709999084)
(366.187011719 602.713989258 12.3520002365)
(382.95300293 590.577026367 5.27300977707)
(384.891998291 589.732971191 5.30800008774)
(399.57598877 607.642028809 40.5740013123)
(390.682006836 583.455993652 9.3170003891)
(414.138000488 615.575012207 39.172000885)
(336.283996582 612.497009277 12.3629999161)
(337.665008545 614.630981445 12.3269996643)
(348.979003906 610.033996582 7.05902004242)
(348.979003906 610.033996582 1.95000004768)
(338.20098877 584.627990723 15.9739999771)
(325.571990967 592.107971191 18.313999176)
(330.130004883 590.478027344 18.3239994049)
(396.057006836 597.848022461 41.3909988403)
(380.428009033 573.645019531 14.079000473)
(410.87298584 614.432006836 42.1459999084)
(410.260009766 610.812011719 41.8829994202)
(316.375 611.59197998 3.41403007507)
(320.346008301 594.130004883 16.2430000305)
(315.574005127 611.320983887 3.41503000259)
(333.57699585 587.560974121 16.8799991608)
(399.790985107 607.945983887 40.5419998169)
(399.570007324 609.315002441 40.8310012817)
(361.92300415 600.393981934 7.07101011276)
(330.191009521 589.965026855 15.7239999771)
(330.985992432 588.151977539 16.9330005646)
(331.32901001 588.539001465 14.7720003128)
(319.743988037 592.24597168 16.2469997406)
(397.394012451 593.616027832 39.2019996643)
(396.812988281 593.698974609 39.202999115)
(329.462005615 588.351013184 18.3099994659)
(333.95300293 586.700012207 16.8349990845)
(394.957000732 569.083007812 2.16899991035)
(394.957000732 569.083007812 1.94999992847)
(402.895996094 591.030029297 39.1920013428)
(397.636993408 593.239990234 39.2010002136)
(414.231994629 615.536010742 18.8689994812)
(414.17098999 615.562988281 18.8740005493)
(413.535003662 616.033996582 39.1730003357)
(403.111999512 620.369995117 39.1910018921)
(402.670013428 620.281982422 39.1920013428)
(392.582000732 595.875 39.2099990845)
(223.330001831 267.70098877 4.86173009872)
(227.429000854 266.010009766 4.84572982788)
(223.330001831 267.70098877 1.94999992847)
(222.119995117 264.811004639 4.89373016357)
(222.119995117 264.811004639 1.9500002861)
(226.240997314 263.098999023 4.87772989273)
(226.240997314 263.098999023 1.95000004768)
(227.429000854 266.010009766 1.95000004768)
(-291.433013916 461.989013672 13.57970047)
(-291.433013916 461.989013672 1.94999969006)
(-284.936004639 477.986999512 13.57970047)
(-284.936004639 477.986999512 1.95000004768)
(-283.460998535 481.583007812 13.57970047)
(-283.460998535 481.583007812 1.95000004768)
(-348.718994141 475.898986816 13.57970047)
(-348.718994141 475.898986816 1.94999957085)
(-380.704986572 510.955993652 13.57970047)
(-380.704986572 510.955993652 1.95000004768)
(-335.648986816 384.716003418 13.57970047)
(-335.648986816 384.716003418 1.95000016689)
(-324.976989746 380.274993896 13.57970047)
(-324.976989746 380.274993896 1.94999992847)
(-316.54598999 381.854003906 13.57970047)
(-316.54598999 381.854003906 1.95000016689)
(-316.12600708 381.787994385 13.57970047)
(-316.12600708 381.787994385 1.94999909401)
(-310.739990234 395.880004883 13.57970047)
(-310.739990234 395.880004883 1.95000016689)
(-398.394012451 453.139007568 15.6536998749)
(-398.190002441 453.565002441 15.613699913)
(-285.196990967 477.640014648 13.57970047)
(-285.196990967 477.640014648 1.9500002861)
(-392.152008057 515.685974121 20.675699234)
(-386.240997314 513.244018555 20.675699234)
(-377.363006592 475.760986328 14.722700119)
(-377.562011719 475.960998535 14.7087001801)
(-376.811004639 475.651000977 15.5006999969)
(-374.678009033 474.511993408 15.5426998138)
(-397.726013184 451.023986816 15.7836999893)
(-378.29699707 421.971008301 21.2257003784)
(-371.269989014 419.187988281 24.1567001343)
(-375.610992432 420.898986816 24.1287002563)
(-299.537994385 457.066986084 16.032699585)
(-379.25201416 510.243011475 20.675699234)
(-294.00201416 455.752990723 13.57970047)
(-294.00201416 455.752990723 1.95000088215)
(-377.164001465 477.020996094 14.720700264)
(-374.209014893 475.910003662 15.5367002487)
(-376.395996094 476.727996826 15.4956998825)
(-419.562011719 441.825012207 21.6107006073)
(-418.679992676 441.561004639 21.6096992493)
(-309.29800415 444.565002441 15.7937002182)
(-312.851013184 446.096008301 15.8147001266)
(-418.059997559 438.731994629 24.1427001953)
(-413.717987061 429.285003662 24.1457004547)
(-388.699005127 507.381988525 24.1357002258)
(-303.803009033 450.902008057 16.0436992645)
(-302.350006104 450.278015137 16.0436992645)
(-313.359008789 443.95300293 15.8186998367)
(-321.562011719 493.687011719 13.57970047)
(-321.562011719 493.687011719 1.95000100136)
(-321.678985596 493.660003662 13.57970047)
(-411.117004395 435.865997314 24.1557006836)
(-379.595001221 418.773010254 21.2696990967)
(-338.009002686 406.973999023 20.675699234)
(-306.911987305 438.070007324 15.2906999588)
(-305.17199707 439.809997559 15.1997003555)
(-332.37298584 451.984985352 15.2316999435)
(-331.688995361 453.466003418 15.2117004395)
(-411.37600708 440.42199707 21.9657001495)
(-412.183013916 440.765014648 21.9657001495)
(-399.200012207 450.343994141 15.5996999741)
(-339.394012451 472.67300415 13.57970047)
(-339.394012451 472.672973633 1.94999992847)
(-348.055999756 476.164001465 13.57970047)
(-348.055999756 476.164001465 1.94999957085)
(-348.200012207 476.109008789 13.57970047)
(-300.680999756 454.332000732 15.9816999435)
(-300.941009521 454.515014648 15.9806995392)
(-302.04598999 454.957000732 15.9816999435)
(-396.527008057 456.243988037 15.736700058)
(-394.544006348 455.266998291 15.7137002945)
(-394.571014404 456.209991455 15.6777000427)
(-339.361999512 407.962005615 20.675699234)
(-413.199005127 438.026000977 21.9386997223)
(-412.722991943 437.70401001 21.9377002716)
(-355.149993896 478.574005127 13.57970047)
(-355.149963379 478.574005127 1.95000135899)
(-355.194000244 478.838012695 13.57970047)
(-355.194000244 478.838012695 1.95000135899)
(-355.304992676 479.303009033 13.57970047)
(-355.304992676 479.303009033 1.95000219345)
(-381.760009766 425.710998535 20.675699234)
(-330.837005615 451.311004639 15.2537002563)
(-330.240997314 452.437988281 15.2397003174)
(-310.149993896 442.610992432 15.8007001877)
(-329.119995117 451.217010498 14.4806995392)
(-328.087005615 451.851989746 14.486700058)
(-327.279998779 449.917999268 14.5706996918)
(-326.733001709 451.084014893 14.5466995239)
(-305.563995361 442.907989502 16.0457000732)
(-296.802001953 463.645996094 16.0496997833)
(-295.074005127 467.761993408 15.9806995392)
(-301.117004395 457.432006836 16.0356998444)
(-299.011993408 461.613006592 15.9637002945)
(-373.766998291 412.802001953 24.143699646)
(-378.32901001 414.645996094 24.1137008667)
(-298.013000488 463.940002441 16.0527000427)
(-296.621002197 468.291992188 15.9827003479)
(-395.902008057 456.647003174 15.7017002106)
(-396.489013672 456.32699585 15.7327003479)
(-306.480987549 440.532012939 15.3097000122)
(-399.343994141 449.803009033 15.6897001266)
(-306.696990967 444.869995117 16.0286998749)
(-305.381988525 447.067993164 15.9976997375)
(-396.45401001 451.321014404 15.7126998901)
(-398.089996338 453.619995117 15.6056995392)
(-370.783996582 410.039001465 21.8526992798)
(-370.087005615 409.585998535 21.8526992798)
(-367.214996338 416.877990723 21.8416996002)
(-367.899993896 417.165008545 21.8407001495)
(-297.842010498 461.105987549 15.9646997452)
(-423.463012695 432.312988281 21.8257007599)
(-397.70401001 448.924987793 15.7887001038)
(-397.17300415 449.321990967 15.7107000351)
(-428.329986572 428.329986572 20.675699234)
(-396.526000977 451.25 15.720700264)
(-322.981994629 384.433990479 13.57970047)
(-310.403015137 395.598999023 13.57970047)
(-300.946014404 438.600006104 13.57970047)
(-294.212005615 486.080993652 13.57970047)
(-334.290008545 470.574005127 13.57970047)
(-378.04901123 513.65802002 13.57970047)
(-365.464996338 508.432006836 13.57970047)
(-317.07598877 398.558990479 13.57970047)
(-317.07598877 398.558990479 1.95000004768)
(-295.023010254 429.009002686 13.57970047)
(-293.747009277 432.053009033 13.57970047)
(-300.946014404 438.600006104 1.95000004768)
(-294.365997314 486.058013916 13.57970047)
(-294.365997314 486.058044434 1.94999980927)
(-348.200012207 476.109008789 1.95000016689)
(-322.981994629 384.433959961 1.94999992847)
(-310.403015137 395.598999023 1.95000016689)
(-372.805999756 490.74899292 13.57970047)
(-372.805999756 490.74899292 1.95000004768)
(-349.471008301 395.510986328 13.57970047)
(-349.471008301 395.510986328 1.94999980927)
(-422.772003174 431.898010254 21.8286991119)
(-334.290008545 470.573974609 1.94999992847)
(-380.743011475 510.87298584 24.143699646)
(-386.268005371 513.17199707 24.1177005768)
(-304.846008301 448.398986816 15.9797000885)
(-303.444000244 447.903015137 15.9786996841)
(-420.911010742 432.390014648 24.1317005157)
(-383.234985352 505.067993164 24.1606998444)
(-321.678985596 493.659973145 1.95000100136)
(-283.505004883 481.67199707 13.57970047)
(-283.505004883 481.67199707 1.95000004768)
(-378.04901123 513.65802002 1.95000004768)
(-307.45300293 438.322998047 15.3346996307)
(-294.212005615 486.080993652 1.94999980927)
(249.182998657 589.655029297 3.57103991508)
(249.182998657 589.655029297 1.9500002861)
(244.51499939 578.447021484 3.55802989006)
(244.51499939 578.447021484 1.95000016689)
(248.36000061 576.854980469 3.59102988243)
(248.359985352 576.854980469 1.95000004768)
(253.027999878 588.064025879 3.60403990746)
(253.028015137 588.064086914 1.95000016689)
(158.391998291 335.389007568 5.70675992966)
(158.39201355 335.389007568 1.95000004768)
(158.324996948 335.411987305 5.70675992966)
(158.324996948 335.411987305 1.95000004768)
(159.01600647 316.214996338 8.60875988007)
(154.347000122 318.221008301 8.60276031494)
(158.04800415 328.639007568 8.71076011658)
(163.302993774 326.511993408 8.7007598877)
(158.983001709 330.854003906 8.69375991821)
(164.259002686 328.660003662 8.68476009369)
(167.919998169 338.510986328 8.79975986481)
(166.098007202 337.968994141 8.79076004028)
(170.57800293 337.411987305 5.66476011276)
(153.54800415 315.915985107 8.57676029205)
(161.651000977 322.473999023 8.68575954437)
(160.447006226 320.385986328 8.68675994873)
(149.613998413 314.589996338 6.98475980759)
(159.29699707 310.529998779 6.98474979401)
(167.490005493 330.036010742 6.98474979401)
(157.768005371 334.234985352 6.98475980759)
(162.977005005 340.593994141 5.69475984573)
(156.380004883 324.584014893 8.70676040649)
(155.436004639 322.401000977 8.70676040649)
(149.613998413 314.589996338 1.95000052452)
(159.29699707 310.529998779 1.95000064373)
(170.57800293 337.411987305 1.9500002861)
(157.960998535 334.736999512 5.70775985718)
(157.960998535 334.736999512 1.94999980927)
(162.977005005 340.593994141 1.9500002861)
(168.67199707 338.20199585 8.80475997925)
(168.218994141 336.820007324 8.80475997925)
(157.994003296 313.867004395 8.58176040649)
(143.962005615 325.511993408 5.69375991821)
(143.962005615 325.511993408 1.9500002861)
(151.126998901 342.885986328 5.69375991821)
(151.126998901 342.885986328 1.9500002861)
(146.498001099 344.79699707 5.69375991821)
(139.36000061 327.407012939 5.69375991821)
(139.36000061 327.407012939 1.95000004768)
(146.498001099 344.79699707 1.9500002861)
(-26.2457008362 634.942993164 8.63586997986)
(-30.7761001587 623.960998535 8.63586997986)
(-7.79514980316 627.143005371 8.63586044312)
(-21.3460998535 595.206970215 6.63585996628)
(-12.4903001785 616.304016113 8.63586044312)
(-19.357000351 632.419006348 8.63586997986)
(-84.6317977905 172.04800415 6.82178020477)
(-84.6317901611 172.04800415 1.94999837875)
(-86.4381027222 167.634002686 6.82178020477)
(-86.4381027222 167.634002686 1.94999837875)
(-98.3158035278 177.722000122 6.82178020477)
(-98.3158111572 177.722015381 1.95000004768)
(-100.166000366 173.263000488 6.82178020477)
(-100.166000366 173.263000488 1.94999837875)
(145.574996948 238.824996948 14.5857000351)
(145.625 237.416000366 14.5037002563)
(132.837005615 242.880004883 12.9937000275)
(132.837005615 242.880004883 1.95000076294)
(148.580001831 244.878997803 14.8097000122)
(146.348999023 246.005996704 14.8437004089)
(145.244003296 237.167999268 14.5066995621)
(143.177993774 238.151000977 14.6586999893)
(143.763000488 239.089996338 14.6857004166)
(194.072998047 227.175003052 12.9937000275)
(194.072998047 227.175003052 1.95000004768)
(180.268005371 224.197006226 14.9027004242)
(179.815002441 223.037002563 14.8966999054)
(139.901992798 253.039001465 12.9937000275)
(177.826004028 223.921005249 14.4976997375)
(147.194000244 247.160995483 14.8186998367)
(181.013000488 231.615997314 14.4967002869)
(181.5 232.852996826 14.5146999359)
(194.039993286 227.009002686 12.9937000275)
(190.692001343 218.843994141 12.9937000275)
(134.078994751 238.996002197 12.9937000275)
(192.774993896 230.869995117 12.9937000275)
(192.774993896 230.869995117 1.9500002861)
(178.322998047 224.992004395 14.5146999359)
(183.962997437 231.824996948 14.9917001724)
(187.041000366 217.003997803 12.9937000275)
(187.041000366 217.003997803 1.95000004768)
(149.332000732 246.470993042 14.782699585)
(134.078994751 238.996002197 1.95000076294)
(139.901992798 253.039001465 1.94999992847)
(183.942001343 230.832000732 15.0367002487)
(181.886993408 230.76499939 14.6886997223)
(192.388000488 231.23500061 12.9937000275)
(190.692016602 218.843994141 1.95000004768)
(194.040008545 227.009017944 1.95000004768)
(136.289001465 251.194000244 12.9937000275)
(136.289001465 251.194015503 1.95000004768)
(192.388000488 231.23500061 1.9500002861)
(-49.3376998901 252.464004517 4.81579017639)
(-49.3376998901 252.464004517 1.95000004768)
(-62.5181007385 257.889007568 4.8347902298)
(-62.5180969238 257.889007568 1.95000004768)
(-56.762298584 246.895996094 9.88379001617)
(-70.4243011475 258.292999268 4.84379005432)
(-70.4243011475 258.292999268 1.95000004768)
(-54.4868011475 245.945999146 1.95000004768)
(-54.4868011475 245.945999146 4.81579017639)
(-67.0534973145 223.610992432 9.88377952576)
(-50.3870010376 249.957000732 4.81478977203)
(-50.3870010376 249.956985474 1.95000004768)
(-70.9044036865 258.386993408 9.88379001617)
(-54.9118003845 252.238006592 9.88379001617)
(-70.9044036865 258.386993408 1.94999885559)
(210.805999756 316.651000977 6.02973985672)
(207.761993408 309.276000977 6.01673984528)
(216.369003296 314.346984863 6.0397400856)
(216.369003296 314.346984863 1.94999969006)
(206.896560669 309.637573242 1.94999909401)
(213.319000244 306.967010498 6.02674007416)
(213.319000244 306.967010498 1.95000004768)
(209.945648193 317.017150879 1.94999980927)
(-18.0475006104 145.73500061 7.36776018143)
(-17.6835002899 145.570007324 6.78976011276)
(-22.3626003265 135.587997437 6.82075977325)
(-27.4284000397 137.947006226 7.8527598381)
(-33.2719993591 140.675003052 7.54776000977)
(-33.2719993591 140.675003052 1.94999933243)
(-33.6762008667 140.934997559 6.8897600174)
(-29.0083007812 150.863006592 6.83576011658)
(-29.0083007812 150.863006592 1.94999992847)
(-22.3626003265 135.587997437 1.94999980927)
(-21.2907009125 144.304992676 10.6977996826)
(-17.6835002899 145.570007324 1.94999980927)
(-24.9538993835 136.79800415 10.8677997589)
(-30.9808006287 139.61000061 11.1227998734)
(-33.6762008667 140.934997559 1.95000040531)
(-27.736700058 147.270996094 10.6208000183)
(-28.6485004425 150.690994263 7.38676023483)
(257.70199585 663.580993652 30.5620994568)
(258.535003662 663.309997559 30.5491008759)
(248.580993652 641.068969727 30.5580997467)
(258.468994141 637.257995605 30.3999996185)
(267.213989258 659.658996582 30.408000946)
(251.917007446 657.57598877 28.2541007996)
(248.652999878 649.715026855 28.2509994507)
(270.95401001 649.565979004 28.2539997101)
(267.838989258 642.031005859 28.2549991608)
(272.617004395 640.04699707 27.6520004272)
(273.971008301 639.986022949 27.6520004272)
(272.358001709 656.492980957 29.1310005188)
(272.324005127 656.50402832 29.1289997101)
(270.566986084 649.885986328 27.6520004272)
(244.270996094 651.476989746 28.214099884)
(247.669006348 659.515014648 28.1711006165)
(253.723999023 656.862976074 27.204000473)
(249.779998779 658.575012207 27.6520996094)
(246.488006592 650.598999023 27.6520004272)
(245.774993896 647.986022949 28.6590003967)
(246.388000488 647.758972168 28.6840000153)
(275.588989258 657.646972656 28.7549991608)
(276.080993652 657.033996582 28.7870006561)
(276.605987549 658.310974121 28.7889995575)
(275.787994385 658.642028809 28.7469997406)
(277.665985107 660.83001709 27.6609992981)
(276.346008301 661.364990234 27.6620006561)
(273.45199585 638.760009766 27.6520004272)
(252.636001587 654.315979004 28.1791000366)
(251.470001221 651.604980469 28.2490997314)
(269.352996826 640.981018066 27.3050003052)
(269.484985352 654.460998535 28.9459991455)
(245.261001587 646.721008301 28.7019996643)
(245.669006348 646.554992676 28.7189998627)
(244.51499939 644.914978027 28.763999939)
(244.013000488 643.528015137 28.813999176)
(266.436004639 652.25 28.75)
(270.467987061 651.90802002 29.0079994202)
(267.811004639 625.077026367 26.9549999237)
(271.710998535 649.439025879 27.8589992523)
(272.572998047 648.710021973 27.2880001068)
(250.276992798 648.864990234 27.2730998993)
(260.29800415 639.17401123 28.3500003815)
(262.795013428 643.749023438 27.6520004272)
(259.386993408 639.5 30.3999996185)
(269.158996582 651.437988281 28.9239997864)
(264.850006104 642.57800293 27.6520004272)
(244.652999878 643.37298584 28.8349990845)
(245.007003784 644.655029297 28.7880001068)
(253.763000488 653.851989746 30.5599994659)
(248.856994629 675.729003906 26.964099884)
(276.644989014 647.609985352 26.9659996033)
(282.555999756 661.784973145 26.9720001221)
(-210.365005493 382.147003174 3.74485993385)
(-200.576004028 378.102996826 3.71884989738)
(-210.365005493 382.147003174 1.95000004768)
(-211.404006958 379.649993896 3.74485993385)
(-211.404006958 379.649993896 1.95000004768)
(-201.613998413 375.605987549 3.71884989738)
(-201.613998413 375.605987549 1.95000004768)
(-200.576004028 378.102996826 1.95000004768)
(150.326004028 624.573974609 3.70082998276)
(150.326004028 624.573974609 1.95000004768)
(151.470001221 627.353027344 3.70782995224)
(151.470001221 627.353027344 1.95000004768)
(146.602996826 629.335998535 3.6338300705)
(145.464996338 626.562988281 3.62683010101)
(145.464996338 626.562988281 1.94999980927)
(146.602996826 629.335998535 1.94999992847)
(-14.2362003326 217.164993286 11.4357995987)
(-12.352399826 216.352996826 11.4357995987)
(11.8766002655 216.893997192 11.7827997208)
(14.3853998184 213.832992554 11.7857999802)
(8.08718013763 208.949005127 12.7718000412)
(8.57933044434 210.324996948 12.7748003006)
(-5.01622009277 221.964996338 11.4138002396)
(-30.317199707 222.207992554 9.66178035736)
(-6.84478998184 222.787994385 11.4138002396)
(-29.9969005585 222.042999268 9.660779953)
(-29.9969005585 222.042999268 1.95000016689)
(13.4902000427 211.701004028 11.7857999802)
(7.10430002213 210.972000122 12.8327999115)
(6.40285015106 209.210006714 12.8308000565)
(-6.34770011902 211.972000122 11.7678003311)
(7.41896009445 206.24899292 11.7807998657)
(17.672000885 222.246002197 10.043800354)
(-1.81230998039 213.01499939 12.8067998886)
(-1.19360005856 214.429992676 12.7748003006)
(-0.226273998618 212.12600708 12.825799942)
(11.9650001526 216.804992676 11.7827997208)
(21.6105995178 223.04800415 5.74477005005)
(21.6105995178 223.04800415 1.95000052452)
(-22.1910991669 221.097000122 10.0888004303)
(-25.5888004303 212.572998047 10.0878000259)
(0.309006005526 213.768005371 12.7888002396)
(14.655500412 195.675003052 7.31275987625)
(14.655500412 195.675003052 1.95000064373)
(18.5501995087 224.317993164 5.67976999283)
(-8.02707958221 214.667999268 11.4138002396)
(-25.5888004303 212.572998047 1.94999992847)
(14.8159999847 196.055999756 10.0347995758)
(21.0746002197 220.832000732 10.0397996902)
(-22.9703998566 219.214004517 10.0888004303)
(-11.2139997482 224.473007202 11.4118003845)
(-9.28643035889 223.792999268 11.4118003845)
(18.5501995087 224.317993164 1.95000004768)
(24.4997997284 219.352005005 10.0347995758)
(-1.93323004246 222.617004395 11.7698001862)
(24.4998016357 219.352005005 1.95000016689)
(-10.0324001312 215.180999756 11.4138002396)
(21.8757991791 222.871002197 5.74776983261)
(21.8757991791 222.871002197 1.95000004768)
(14.4673995972 195.753005981 7.3257598877)
(-29.5323009491 224.052993774 9.70777988434)
(14.4673986435 195.753005981 1.95000004768)
(-15.7945995331 236.067993164 10.0878000259)
(74.9585037231 197.951004028 21.7467002869)
(65.8984985352 187.432006836 21.8747005463)
(63.3025016785 200.966995239 22.4817008972)
(67.158203125 190.371994019 21.8927001953)
(60.7280006409 189.731002808 22.7856998444)
(64.8267974854 191.576004028 22.7766990662)
(63.4567985535 194.36000061 23.7807006836)
(58.954498291 189.54800415 23.7306995392)
(59.8217010498 195.98399353 23.3426990509)
(64.2195968628 193.753005981 23.7756996155)
(61.0817985535 188.936004639 22.4817008972)
(61.1366996765 195.26600647 23.6187000275)
(62.2638015747 194.979003906 23.786699295)
(61.667098999 193.807998657 23.7796993256)
(63.5396995544 191.216995239 23.7607002258)
(57.4575996399 187.875 22.5016994476)
(62.1259002686 201.382003784 22.4887008667)
(45.6524009705 185.792007446 21.7297992706)
(64.0593032837 188.244995117 22.7616996765)
(64.4959030151 194.779998779 22.5086994171)
(60.5125999451 197.559005737 22.9337005615)
(54.1651000977 206.236999512 22.3588008881)
(53.8115005493 206.414001465 22.3588008881)
(48.9841003418 194.735992432 22.3588008881)
(73.5719985962 194.576004028 21.7457008362)
(61.9160003662 194.940994263 23.786699295)
(58.8497009277 187.190002441 22.4927997589)
(61.567401886 191.587005615 23.7656993866)
(54.2924003601 206.541000366 21.7318000793)
(57.3911018372 189.753005981 23.7387008667)
(59.8605995178 195.845993042 23.6187000275)
(61.5623016357 196.222000122 23.1147003174)
(66.2029037476 176.865005493 21.7446994781)
(52.6005783081 203.484649658 9.87676906586)
(53.9452056885 206.678985596 1.94999992847)
(53.9452018738 206.679000854 2.45475006104)
(61.7943000793 196.98399353 22.9267997742)
(45.1775016785 185.582992554 1.95000016689)
(45.1775016785 185.582992554 1.98675000668)
(74.9585037231 197.951004028 1.94999873638)
(65.8822021484 176.985992432 21.7446994781)
(-119.931999207 253.067001343 21.2388000488)
(-102.513999939 245.824005127 13.918800354)
(-102.51399231 245.824005127 1.95000004768)
(-102.845001221 246.156005859 23.5037994385)
(-132.863998413 223.341003418 14.9337997437)
(-132.863998413 223.341003418 1.94999992847)
(-125.357002258 240.792007446 14.9228000641)
(-125.357002258 240.792007446 1.95000088215)
(-119.809997559 253.365005493 21.2437992096)
(-119.710998535 217.843994141 16.9538002014)
(-119.710998535 217.843994141 1.95000004768)
(-104.674003601 240.085006714 23.5447998047)
(-102.64099884 245.87399292 23.5018005371)
(-141.979003906 247.371002197 9.25181007385)
(-141.979003906 247.371002197 1.95000004768)
(-136.923995972 259.45300293 9.1508102417)
(-136.067993164 249.658004761 10.7318000793)
(-138.007003784 250.54800415 10.7318000793)
(-137.559997559 246.26600647 10.7318000793)
(-120.401000977 253.746002197 14.8458003998)
(-120.401000977 253.746002197 1.95000004768)
(-102.73500061 246.442993164 14.8507995605)
(-102.73500061 246.442993164 1.95000004768)
(-112.375 235.434005737 17.639799118)
(-107.624000549 248.184005737 23.5657997131)
(-110.987998962 240.399993896 23.6327991486)
(-112.722999573 251.481002808 21.2257995605)
(-123.019996643 245.51499939 21.1238002777)
(-125.539001465 241.229003906 17.7068004608)
(-123.611000061 245.764007568 17.653799057)
(-120.975997925 243.13999939 18.529800415)
(-130.843002319 255.371002197 9.90281009674)
(-121.230003357 225.473007202 17.7968006134)
(-122.396003723 221.964996338 17.7928009033)
(-121.595001221 221.395996094 17.7817993164)
(-125.887001038 253.121994019 12.6328001022)
(-113.872001648 251.70199585 21.2278003693)
(-112.386001587 280.234985352 5.04980993271)
(-112.386001587 280.234985352 1.94999957085)
(-109.209999084 278.947998047 5.05981016159)
(-109.209999084 278.947998047 1.94999969006)
(-138.177993774 245.824005127 10.7318000793)
(-138.177993774 245.824005127 1.95000004768)
(-100.967002869 238.444000244 13.9197998047)
(-100.967002869 238.444000244 1.95000088215)
(-114.208999634 231.035995483 16.9538002014)
(-120.931999207 233.505004883 16.9248008728)
(-120.319000244 252.149993896 21.2248001099)
(-111.994003296 255.966995239 16.2527999878)
(-124.986999512 240.764007568 17.7057991028)
(-126.290000916 220.589996338 16.9258003235)
(-111.197998047 255.216003418 16.2887992859)
(-129.317993164 254.110992432 12.6968002319)
(-125.986000061 254.524993896 10.7678003311)
(-105.236999512 239.12399292 23.5548000336)
(-110.424003601 240.167999268 23.6247997284)
(-109.955001831 240.416000366 23.6177997589)
(-105.939002991 238.776000977 23.5657997131)
(-110.667999268 275.368988037 14.9407997131)
(-113.872001648 276.716003418 14.9398002625)
(-93.8302001953 268.518005371 14.9448003769)