/*--------------------------------*- C++ -*----------------------------------*\
  =========                 |
  \\      /  F ield         | OpenFOAM: The Open Source CFD Toolbox
   \\    /   O peration     | Website:  https://openfoam.org
    \\  /    A nd           | Version:  7  
     \\/     M anipulation  |
\*---------------------------------------------------------------------------*/
FoamFile
{
    version     2.0;
    format      ascii;
    class       dictionary;
    object      surfaceFeaturesDict;
}
// * * * * * * * * * * * * * * * * * * * * * * * * * * * * * * * * * * * * * //

//surfaces ("DelftCampus_LoD2_EWI_xyz0_rotate.stl");
//surfaces ("green_space_xyz0_rotate_refined.obj");

surfaces ("water_space_xyz0_rotate_refined.obj");

includedAngle    150;

subsetFeatures
{
    nonManifoldEdges yes;
    openEdges        yes;
}

trimFeatures
{
    minElem          0;
    minLen           0;
}

writeObj             yes;
// ************************************************************************* //
