/*--------------------------------*- C++ -*----------------------------------*\
  =========                 |
  \\      /  F ield         | OpenFOAM: The Open Source CFD Toolbox
   \\    /   O peration     | Website:  https://openfoam.org
    \\  /    A nd           | Version:  7
     \\/     M anipulation  |
\*---------------------------------------------------------------------------*/
FoamFile
{
    version     2.0;
    format      ascii;
    class       volScalarField;
    location    "0";
    object      epsilon;
}
// * * * * * * * * * * * * * * * * * * * * * * * * * * * * * * * * * * * * * //

dimensions      [0 2 -3 0 0 0 0];

#include        "include/ABLConditions"

internalField   uniform $turbulentEpsilon;

boundaryField
{
    terrain
    {
        type            epsilonz0WallFunction;
	z0              $z0_terrain;
        value           $internalField;
    }

    green1
    {
        type            epsilonz0WallFunction;
	z0              $z0_green1;
        value           $internalField;
    }

    water
    {
        type            epsilonz0WallFunction;
	z0              $z0_water;
        value           $internalField;
    }

    green2
    {
        type            epsilonz0WallFunction;
	z0              $z0_green2;
        value           $internalField;
    } 

    outlet
    {
        type            zeroGradient;
    }

    inlet
    {
        type            atmBoundaryLayerInletEpsilon;
        #include        "include/ABLConditions"
        value           $internalField;
    }

    ground
    {
        type            zeroGradient;
    }

    #include "include/sideAndTopPatches"
}


// ************************************************************************* //
