/*--------------------------------*- C++ -*----------------------------------*\
  =========                 |
  \\      /  F ield         | OpenFOAM: The Open Source CFD Toolbox
   \\    /   O peration     | Website:  https://openfoam.org
    \\  /    A nd           | Version:  7
     \\/     M anipulation  |
\*---------------------------------------------------------------------------*/
FoamFile
{
    version     2.0;
    format      ascii;
    class       featureEdgeMesh;
    location    "constant/triSurface";
    object      water_space_xyz0_rotate_refined.eMesh;
}
// * * * * * * * * * * * * * * * * * * * * * * * * * * * * * * * * * * * * * //


// points:

4971
(
(439.315582 561.358032 1.95)
(467.765991 623.429688 1.95)
(469.647308 613.758423 1.95)
(435.211304 697.230896 1.95)
(359.966156 712.265076 1.95)
(253.349548 787.392029 1.95)
(252.566971 787.759766 1.95)
(240.318283 795.356262 1.95)
(234.622742 795.609253 1.95)
(234.649384 797.127075 1.95)
(241.76268 791.390259 1.95)
(235.588364 787.166687 1.95)
(234.26564 785.096069 1.95)
(237.447021 778.273438 1.95)
(237.447006 778.273499 1.95)
(235.366974 786.226379 1.95)
(235.902664 789.917114 1.95)
(222.770172 783.496033 1.95)
(239.776138 790.467712 1.95)
(226.63916 787.947693 1.95)
(226.066833 789.222595 1.95)
(227.146988 771.850769 1.95)
(376.188171 720.893738 1.95)
(229.704575 787.931641 1.95)
(13.648784 124.675652 1.95)
(-14.742112 124.529076 1.95)
(-14.753016 124.514099 1.95)
(32.458984 108.415489 1.95)
(32.690098 108.536613 1.95)
(32.690067 108.535645 1.95)
(42.132736 104.033051 1.95)
(47.835918 101.970413 1.95)
(34.713242 166.184586 1.95)
(64.324989 94.092201 1.95)
(64.325005 94.092094 1.95)
(64.877846 93.665367 1.95)
(83.846756 87.791725 1.95)
(78.055176 87.441635 1.95)
(74.296227 89.14344 1.95)
(123.503006 77.645523 1.95)
(120.730804 78.037521 1.95)
(125.819687 78.612244 1.95)
(124.618073 77.745872 1.95)
(70.401749 150.643677 1.95)
(82.218178 146.836716 1.95)
(82.353798 146.917068 1.95)
(84.180504 87.290939 1.95)
(71.529984 90.494156 1.95)
(104.343758 90.36808 1.95)
(104.570801 89.589081 1.95)
(104.515907 89.916412 1.95)
(301.302124 289.125458 1.95)
(319.746002 326.769897 1.95)
(315.6586 323.065796 1.95)
(319.704865 326.776062 1.95)
(319.050781 329.492218 1.95)
(320.277069 328.954498 1.95)
(308.562317 295.201172 1.95)
(308.215027 295.38855 1.95)
(308.325562 295.341339 1.95)
(308.272705 295.468475 1.95)
(308.006958 295.453033 1.95)
(308.335571 295.469635 1.95)
(307.900848 295.493622 1.95)
(318.951599 322.121613 1.95)
(319.126923 322.028625 1.95)
(319.534332 321.984863 1.95)
(319.466431 322.02417 1.95)
(319.511658 322.122894 1.95)
(319.511658 322.122864 1.95)
(305.779449 311.984894 1.95)
(306.112671 311.865326 1.95)
(306.11264 311.865326 1.95)
(306.14093 311.983398 1.95)
(305.661957 312.147339 1.95)
(271.191193 207.156113 1.95)
(271.143677 207.188507 1.95)
(271.490051 207.370178 1.95)
(271.505646 207.398041 1.95)
(271.871826 207.053833 1.95)
(276.887543 220.552109 1.95)
(277.157928 220.29483 1.95)
(277.161987 220.283997 1.95)
(277.098999 220.479309 1.95)
(277.181091 220.569305 1.95)
(279.540497 227.479828 1.95)
(280.100159 227.068039 1.95)
(280.072357 227.111404 1.95)
(280.115692 227.19725 1.95)
(279.965485 227.290253 1.95)
(280.154114 227.209396 1.95)
(280.226868 227.196274 1.95)
(280.201782 227.196518 1.95)
(280.244507 227.168472 1.95)
(280.249207 227.168396 1.95)
(280.255493 227.163651 1.95)
(280.092773 227.309509 1.95)
(279.879211 227.394226 1.95)
(280.047791 227.238831 1.95)
(282.882812 233.614075 1.95)
(282.725403 233.781418 1.95)
(282.872192 233.645187 1.95)
(282.859985 233.647308 1.95)
(282.806793 233.734283 1.95)
(282.809265 233.740433 1.95)
(282.808289 233.751572 1.95)
(282.850708 233.811081 1.95)
(282.877655 233.834183 1.95)
(282.779175 233.863159 1.95)
(282.542938 233.995163 1.95)
(282.641357 234.011581 1.95)
(282.641388 234.011581 1.95)
(282.430939 234.080276 1.95)
(282.432892 234.080032 1.95)
(282.503143 233.826477 1.95)
(282.460419 233.96637 1.95)
(279.97052 250.237595 1.95)
(279.970306 250.237656 1.95)
(280.33783 250.176422 1.95)
(280.116638 250.213058 1.95)
(280.028137 250.489517 1.95)
(280.078918 250.321777 1.95)
(279.888458 250.498306 1.95)
(279.822754 250.477036 1.95)
(279.964844 250.385193 1.95)
(280.077087 250.487946 1.95)
(279.933136 250.466644 1.95)
(280.069855 250.475052 1.95)
(280.096039 250.465591 1.95)
(277.093384 243.706482 1.95)
(277.154266 243.672577 1.95)
(277.081909 243.762253 1.95)
(277.2854 243.754532 1.95)
(277.091248 243.874298 1.95)
(277.597473 243.596436 1.95)
(277.578857 243.621765 1.95)
(277.094849 243.871887 1.95)
(277.136902 243.874176 1.95)
(277.125671 243.813141 1.95)
(277.295441 243.678955 1.95)
(277.627319 243.673996 1.95)
(277.618744 243.809021 1.95)
(277.307526 243.981354 1.95)
(277.206604 244.067276 1.95)
(274.235596 237.138153 1.95)
(274.327423 237.101257 1.95)
(274.695618 236.963074 1.95)
(274.753357 236.987701 1.95)
(274.734467 236.969543 1.95)
(290.895294 253.562943 1.95)
(290.886047 253.547821 1.95)
(291.188477 253.526932 1.95)
(290.908508 253.577744 1.95)
(290.872375 253.631775 1.95)
(291.2034 253.600342 1.95)
(291.173706 253.588837 1.95)
(290.860535 253.636261 1.95)
(290.609772 253.83844 1.95)
(290.912323 253.710464 1.95)
(291.021179 253.725723 1.95)
(290.73468 253.814972 1.95)
(290.531708 253.925278 1.95)
(290.908417 253.793839 1.95)
(290.498077 253.936035 1.95)
(290.491394 253.933701 1.95)
(290.520569 253.915024 1.95)
(290.674072 253.941803 1.95)
(290.547424 253.953629 1.95)
(291.00174 253.881256 1.95)
(291.005798 253.800034 1.95)
(290.874329 253.917892 1.95)
(291.11853 253.665298 1.95)
(290.687927 253.97467 1.95)
(290.706909 253.984238 1.95)
(290.685333 254.033325 1.95)
(51.880928 158.938766 1.95)
(42.50906 162.863586 1.95)
(-326.916412 677.553711 1.95)
(-240.776001 567.249207 1.95)
(333.562622 766.877563 1.95)
(243.080048 776.269836 1.95)
(238.63031 774.370178 1.95)
(280.183594 769.965942 1.95)
(414.156433 524.250061 1.95)
(340.358948 761.279419 1.95)
(338.5961 760.404419 1.95)
(254.200684 200.422653 1.95)
(297.04538 282.908478 1.95)
(295.577026 280.262024 1.95)
(-245.320511 802.023499 1.95)
(-242.341507 569.005066 1.95)
(-242.697021 568.936401 1.95)
(297.999939 767.01532 1.95)
(438.838135 561.466858 1.95)
(292.409943 278.932495 1.95)
(225.346863 783.714539 1.95)
(293.808838 276.095245 1.95)
(349.30899 418.384003 1.95)
(351.003998 415.881012 1.95)
(392.579987 488.526001 1.95)
(392.690002 488.679993 1.95)
(392.933014 488.96701 1.95)
(393.06601 489.100006 1.95)
(393.132996 489.166992 1.95)
(394.591003 490.183014 1.95)
(394.845001 490.303986 1.95)
(394.37851 490.080505 1.95)
(395.010986 490.381989 1.95)
(395.276001 490.470001 1.95)
(395.640015 490.569 1.95)
(395.817993 490.614014 1.95)
(396.093994 490.669006 1.95)
(412.302002 494.591003 1.95)
(465.617004 605.711975 1.95)
(347.707001 419.036011 1.95)
(347.071014 417.516998 1.95)
(348.506989 416.920013 1.95)
(347.369995 419.184998 1.95)
(364.898987 420.831696 1.95)
(345.954987 419.759003 1.95)
(374.444 510.605988 1.95)
(345.766998 419.837006 1.95)
(352.203583 429.614655 1.95)
(349.842438 431.473206 1.95)
(451.867004 624.533997 1.95)
(462.690643 617.312012 1.95)
(468.985992 626.981018 1.95)
(467.70401 627.510986 1.95)
(467.394989 626.76001 1.95)
(443.39801 573.859009 1.95)
(471.931549 618.245117 1.95)
(472.317993 624.698975 1.95)
(475.444 610.898987 1.95)
(470.285797 615.550293 1.95)
(467.803986 606.219971 1.95)
(467.639008 606.276001 1.95)
(467.566986 606.291992 1.95)
(467.494995 606.309021 1.95)
(467.307007 606.34198 1.95)
(465.959015 606.01001 1.95)
(466.079987 606.086975 1.95)
(466.401001 606.231995 1.95)
(466.445007 606.231995 1.95)
(466.46701 606.252991 1.95)
(466.334991 606.208984 1.95)
(466.533997 606.276001 1.95)
(467.196991 606.34198 1.95)
(466.915009 606.346985 1.95)
(467.096985 606.353027 1.95)
(466.174011 606.137024 1.95)
(497.315002 676.125 1.95)
(498.949005 679.528015 1.95)
(488.950989 686.190002 1.95)
(483.786011 673.731995 1.95)
(500.397003 672.002991 1.95)
(505.390991 669.926025 1.95)
(495.707001 658.960999 1.95)
(508.657013 653.700989 1.95)
(484.365997 652.833984 1.95)
(485.156006 651.635986 1.95)
(484.050995 652.120972 1.95)
(482.709015 653.562988 1.95)
(483.730988 652.242981 1.95)
(484.045013 653 1.95)
(482.382996 652.838989 1.95)
(481.062012 654.26001 1.95)
(482.084015 652.982971 1.95)
(482.399994 653.695984 1.95)
(480.769989 653.523987 1.95)
(479.399994 654.982971 1.95)
(480.437988 653.679016 1.95)
(480.774994 654.369995 1.95)
(474.682007 676.208008 1.95)
(474.648987 676.174011 1.95)
(479.106995 654.247986 1.95)
(477.720001 654.849976 1.95)
(478.803009 654.385986 1.95)
(479.112 655.093994 1.95)
(474.847992 667.843994 1.95)
(474.471008 676.130005 1.95)
(472.108002 671.598999 1.95)
(472.035004 669.583984 1.95)
(474.27301 676.02002 1.95)
(473.450012 674.887024 1.95)
(471.825012 671.142029 1.95)
(472.040985 675.247009 1.95)
(470.847992 672.328979 1.95)
(474.013 675.892029 1.95)
(474.157013 675.992004 1.95)
(473.605011 675.395996 1.95)
(473.953003 675.875977 1.95)
(473.406006 675.461975 1.95)
(473.67099 675.682983 1.95)
(390.536011 743.64801 1.95)
(391.540985 744.299988 1.95)
(390.917999 744.559021 1.95)
(442.856995 694.674011 1.95)
(391.154999 743.382019 1.95)
(390.342987 743.718994 1.95)
(339.546997 765.578979 1.95)
(331.752991 768.83197 1.95)
(440.342987 682.439026 1.95)
(440.911987 683.97998 1.95)
(440.536011 684.090027 1.95)
(391.342987 743.304993 1.95)
(332.050995 768.689026 1.95)
(332.161011 768.622986 1.95)
(438.774994 681.710022 1.95)
(332.243988 768.572998 1.95)
(332.348999 768.500977 1.95)
(332.476013 768.406982 1.95)
(332.619995 768.286011 1.95)
(362.046997 709.015991 1.95)
(378.98999 703.862 1.95)
(349.30899 716.518005 1.95)
(327.067993 720.926025 1.95)
(327.45401 722.992981 1.95)
(324.858002 725.655029 1.95)
(319.753998 727.445007 1.95)
(320.052002 728.893005 1.95)
(325.675995 726.781982 1.95)
(295.298004 738.388 1.95)
(363.172882 713.577637 1.95)
(332.779999 768.137024 1.95)
(332.907013 767.999023 1.95)
(222.714005 767.142029 1.95)
(217.598999 768.788025 1.95)
(223.145004 768.898987 1.95)
(218.167999 770.505981 1.95)
(333.044006 767.827026 1.95)
(333.122986 767.728027 1.95)
(333.292999 767.45697 1.95)
(333.210999 767.594971 1.95)
(333.459991 767.137024 1.95)
(333.497986 767.04303 1.95)
(126.454002 810.536011 1.95)
(127.360001 813.03302 1.95)
(333.526001 766.981995 1.95)
(333.579987 766.815979 1.95)
(333.609009 766.711975 1.95)
(140.972 814.932983 1.95)
(139.882996 815.656982 1.95)
(139.772995 815.414001 1.95)
(141.054001 815.104004 1.95)
(333.735992 765.866028 1.95)
(333.730011 766.038025 1.95)
(333.740997 765.695984 1.95)
(333.708008 765.353027 1.95)
(333.69101 765.247009 1.95)
(333.614014 764.905029 1.95)
(333.524994 764.640015 1.95)
(333.487 764.60199 1.95)
(333.459991 764.484985 1.95)
(332.626007 763.34198 1.95)
(332.907013 763.622986 1.95)
(332.403992 763.164978 1.95)
(332.26001 763.065002 1.95)
(332.200012 763.049011 1.95)
(332.161011 763.01001 1.95)
(332.062012 762.955017 1.95)
(332.001007 762.939026 1.95)
(331.703003 762.771973 1.95)
(331.531006 762.732971 1.95)
(331.291016 762.64801 1.95)
(330.819 762.552002 1.95)
(330.713989 762.534973 1.95)
(330.488007 762.530029 1.95)
(330.311005 762.530029 1.95)
(330.144989 762.539978 1.95)
(329.912994 762.573975 1.95)
(329.691986 762.617981 1.95)
(329.587006 762.645996 1.95)
(270.747986 790.205994 1.95)
(270.786987 790.244019 1.95)
(270.84201 790.47699 1.95)
(270.946991 790.671021 1.95)
(270.958008 790.724976 1.95)
(271.278015 791.267029 1.95)
(272.256012 792.112 1.95)
(270.682007 792.924011 1.95)
(266.283997 791.929993 1.95)
(271.028992 790.885986 1.95)
(231.789993 797.609009 1.95)
(233.630005 802.630981 1.95)
(233.585999 802.453979 1.95)
(233.613998 802.525024 1.95)
(233.641998 802.72998 1.95)
(233.641998 802.685974 1.95)
(233.658005 802.702026 1.95)
(233.634995 802.768005 1.95)
(233.653 802.741028 1.95)
(233.630005 802.807007 1.95)
(233.625 802.846008 1.95)
(233.641006 802.817993 1.95)
(233.602997 802.911987 1.95)
(233.608002 802.916992 1.95)
(233.585999 802.940002 1.95)
(233.630005 802.851013 1.95)
(233.613998 802.879028 1.95)
(233.591003 802.945007 1.95)
(233.574997 802.973022 1.95)
(233.580994 802.978027 1.95)
(233.559006 803 1.95)
(233.542007 803.028992 1.95)
(233.546997 803.033997 1.95)
(331.863007 762.843994 1.95)
(207.699005 791.593018 1.95)
(207.423004 791.890991 1.95)
(205.395004 791.54303 1.95)
(329.415985 762.695007 1.95)
(221.669998 803.663025 1.95)
(221.682007 803.630005 1.95)
(221.968994 803.916992 1.95)
(221.643005 803.547974 1.95)
(222.061996 803.96698 1.95)
(222.035004 803.984009 1.95)
(233.369995 803.210022 1.95)
(233.365005 803.205017 1.95)
(233.343002 803.22699 1.95)
(233.337006 803.221985 1.95)
(233.182999 803.286987 1.95)
(233.154999 803.304016 1.95)
(233.143997 803.29303 1.95)
(233.276993 803.249023 1.95)
(233.216003 803.276978 1.95)
(233.110001 803.304016 1.95)
(233.082993 803.320984 1.95)
(233.067001 803.304016 1.95)
(233.115997 803.309998 1.95)
(232.977997 803.304016 1.95)
(232.951004 803.320984 1.95)
(232.929001 803.297974 1.95)
(233.022995 803.304016 1.95)
(232.895996 803.309998 1.95)
(232.862 803.276978 1.95)
(222.190002 804.005981 1.95)
(222.162003 804.02301 1.95)
(222.128006 803.98999 1.95)
(222.852005 803.828003 1.95)
(232.835007 803.29303 1.95)
(232.800995 803.26001 1.95)
(232.712997 803.215027 1.95)
(232.492004 802.994995 1.95)
(222.339005 804.021973 1.95)
(222.304993 804.03302 1.95)
(222.294998 804.02301 1.95)
(222.244995 804.017029 1.95)
(222.382996 804.021973 1.95)
(222.354996 804.038025 1.95)
(222.531998 803.994995 1.95)
(222.466003 804.017029 1.95)
(222.438004 804.03302 1.95)
(222.427002 804.021973 1.95)
(222.475998 804.028015 1.95)
(232.686005 803.232971 1.95)
(222.604004 803.978027 1.95)
(222.576004 803.994995 1.95)
(222.570007 803.989014 1.95)
(222.632004 803.960999 1.95)
(222.608994 803.984009 1.95)
(222.664993 803.950989 1.95)
(222.643005 803.973022 1.95)
(222.692001 803.934021 1.95)
(222.669998 803.955994 1.95)
(232.481003 803.028992 1.95)
(229.630997 796.244019 1.95)
(222.934998 803.736023 1.95)
(217.080002 792.531982 1.95)
(223.061996 803.067017 1.95)
(223.089996 803.093994 1.95)
(223.074005 803.122009 1.95)
(223.033997 802.994995 1.95)
(223.089005 803.182983 1.95)
(223.084 803.132996 1.95)
(223.089996 803.22699 1.95)
(223.095001 803.187988 1.95)
(223.106003 803.244019 1.95)
(222.990005 803.65802 1.95)
(222.996002 803.664001 1.95)
(223.112 803.249023 1.95)
(223.100998 803.281982 1.95)
(223.106003 803.286987 1.95)
(223.100998 803.325989 1.95)
(223.106995 803.33197 1.95)
(223.089996 803.359009 1.95)
(223.084 803.39801 1.95)
(223.095001 803.408997 1.95)
(223.078995 803.437012 1.95)
(223.067993 803.469971 1.95)
(223.056 803.502991 1.95)
(223.046005 803.536011 1.95)
(223.057007 803.547974 1.95)
(223.035004 803.570007 1.95)
(223.018997 803.596985 1.95)
(223.041 803.575012 1.95)
(223.024002 803.60199 1.95)
(243.037994 790.072998 1.95)
(245.507004 796.741028 1.95)
(252.501007 793.304993 1.95)
(241.751007 783.218018 1.95)
(252.389999 783.383972 1.95)
(241.143005 796.841003 1.95)
(241.481003 796.028992 1.95)
(237.182999 798.094971 1.95)
(241.695007 795.315979 1.95)
(236.292007 797.867981 1.95)
(235.210007 797.492981 1.95)
(235.636002 797.653015 1.95)
(241.794998 794.885986 1.95)
(241.856003 794.593018 1.95)
(241.955994 793.14502 1.95)
(234.580994 797.21698 1.95)
(241.889008 794.315979 1.95)
(241.934006 793.874023 1.95)
(241.949997 793.580994 1.95)
(241.960999 792.841003 1.95)
(233.563995 796.687012 1.95)
(232.779999 796.210999 1.95)
(233.160995 796.460022 1.95)
(241.921997 792.405029 1.95)
(241.817993 791.68103 1.95)
(231.498001 795.237976 1.95)
(230.990005 794.775024 1.95)
(241.690994 791.112 1.95)
(241.617996 790.820007 1.95)
(241.779007 791.377991 1.95)
(238.806 780.583008 1.95)
(232.051346 794.877502 1.95)
(230.039993 793.780029 1.95)
(238.740005 780.163025 1.95)
(238.779007 780.335022 1.95)
(229.25 792.947021 1.95)
(238.645996 779.893005 1.95)
(238.613007 779.770996 1.95)
(238.597 779.710022 1.95)
(238.557999 779.671021 1.95)
(238.487 779.510986 1.95)
(234.749832 790.229736 1.95)
(233.868073 790.771545 1.95)
(238.104996 778.908997 1.95)
(238.248001 779.096985 1.95)
(238.188004 778.992004 1.95)
(237.563995 778.367981 1.95)
(227.503998 791.775024 1.95)
(237.375 778.223999 1.95)
(237.667999 778.427979 1.95)
(226.873993 791.455017 1.95)
(225.791 790.98999 1.95)
(236.862 777.93103 1.95)
(237.231995 778.125 1.95)
(237.126999 778.064026 1.95)
(232.317352 779.449707 1.95)
(236.639999 777.843018 1.95)
(211.317001 789.377014 1.95)
(213.097 789.919006 1.95)
(212.572006 789.791992 1.95)
(223.792007 790.361023 1.95)
(217.046005 790.333008 1.95)
(223.337997 790.260986 1.95)
(222.647995 790.14502 1.95)
(218.123993 790.260986 1.95)
(221.951996 790.067993 1.95)
(220.078995 790.051025 1.95)
(364.716003 422.56601 1.95)
(364.743011 422.592987 1.95)
(364.792999 422.864014 1.95)
(393.265015 489.299011 1.95)
(393.477631 489.467621 1.95)
(393.77301 489.718994 1.95)
(417.86499 497.414001 1.95)
(465.716003 605.810974 1.95)
(349.141998 418.438995 1.95)
(425.035004 540.205017 1.95)
(466.319 628.112976 1.95)
(466.19101 628.338989 1.95)
(460.286011 622.963989 1.95)
(459.213989 609.960022 1.95)
(466.384003 628.312012 1.95)
(469.339996 626.804016 1.95)
(469.036011 626.057983 1.95)
(473.714996 624.947998 1.95)
(472.605011 625.427979 1.95)
(467.423004 606.325989 1.95)
(466.815002 606.335999 1.95)
(466.709991 606.320007 1.95)
(466.644012 606.296997 1.95)
(466.516998 606.258972 1.95)
(465.815002 605.911011 1.95)
(465.859009 605.911011 1.95)
(522.754028 583.299988 1.95)
(520.992004 592.099976 1.95)
(392.475006 488.376007 1.95)
(394.247986 490.016998 1.95)
(415.058014 493.679993 1.95)
(437.708008 539.841003 1.95)
(432.452148 528.763611 1.95)
(426.774994 516.356995 1.95)
(465.665985 605.762024 1.95)
(455.702515 588.016907 1.95)
(465.708466 605.804138 1.95)
(466.378998 606.208984 1.95)
(466.622009 606.275024 1.95)
(467.29599 606.330994 1.95)
(339.65799 426.367004 1.95)
(345.131989 418.317993 1.95)
(337.60199 421.438995 1.95)
(450.904999 622.335022 1.95)
(449.436005 619.054016 1.95)
(467.091003 626.89801 1.95)
(472.046997 624.825989 1.95)
(472.322998 625.544006 1.95)
(470.687988 625.367004 1.95)
(470.997009 626.119019 1.95)
(364.825989 422.89801 1.95)
(364.859009 423.062988 1.95)
(430.963898 529.491943 1.95)
(466.125 606.088013 1.95)
(466.217987 606.137024 1.95)
(466.240997 606.159973 1.95)
(466.290985 606.164978 1.95)
(467.079987 606.335999 1.95)
(346.756012 417.643005 1.95)
(345.320007 418.240997 1.95)
(443.315002 574.218018 1.95)
(447.786774 577.286804 1.95)
(348.695007 416.842987 1.95)
(364.891998 423.096008 1.95)
(392.285095 488.05957 1.95)
(437.812988 572.075012 1.95)
(466.687988 606.297974 1.95)
(466.794006 606.315002 1.95)
(452.645996 626.328003 1.95)
(467.372986 627.664978 1.95)
(390.790009 744.784973 1.95)
(391.790009 744.370972 1.95)
(331.846008 768.794006 1.95)
(440.696991 684.60498 1.95)
(443.237 687.101013 1.95)
(441.962006 687.857971 1.95)
(442.044006 684.228027 1.95)
(332.708008 768.197998 1.95)
(332.967987 767.926025 1.95)
(333.177002 767.651001 1.95)
(333.359985 767.346985 1.95)
(333.431 767.197021 1.95)
(333.65799 766.541016 1.95)
(333.679993 766.429993 1.95)
(226.309998 763.66803 1.95)
(195.539993 792.294983 1.95)
(126.265999 810.612 1.95)
(126.095001 813.755981 1.95)
(333.703003 766.31897 1.95)
(333.703003 766.275024 1.95)
(333.718994 766.158997 1.95)
(333.679993 765.192017 1.95)
(333.631012 764.966003 1.95)
(333.579987 764.872009 1.95)
(333.386993 764.325012 1.95)
(333.292999 764.187012 1.95)
(333.277008 764.125977 1.95)
(333.183014 763.987976 1.95)
(333.083008 763.843994 1.95)
(332.100006 762.994019 1.95)
(270.997009 790.763977 1.95)
(271.261993 791.205994 1.95)
(233.602997 802.426025 1.95)
(233.630005 802.497986 1.95)
(233.625 802.536987 1.95)
(233.630997 802.585999 1.95)
(233.647003 802.557983 1.95)
(233.636002 802.546997 1.95)
(233.647003 802.60199 1.95)
(233.658005 802.65802 1.95)
(233.645996 802.780029 1.95)
(233.619995 802.883972 1.95)
(233.563995 803.005981 1.95)
(198.369003 792.205994 1.95)
(196.645004 792.869019 1.95)
(198.546005 791.588013 1.95)
(221.630997 803.580017 1.95)
(221.940994 803.934021 1.95)
(233.315994 803.244019 1.95)
(233.309998 803.237976 1.95)
(233.281998 803.254028 1.95)
(233.255005 803.27002 1.95)
(233.25 803.265991 1.95)
(233.222 803.281982 1.95)
(233.188004 803.29303 1.95)
(233.039001 803.320984 1.95)
(232.994995 803.320984 1.95)
(222.095001 804 1.95)
(232.774002 803.276001 1.95)
(222.212006 804.028015 1.95)
(222.266998 804.039001 1.95)
(222.393997 804.03302 1.95)
(222.542999 804.005981 1.95)
(222.697998 803.939026 1.95)
(218.968994 792.52002 1.95)
(223.052002 802.96698 1.95)
(223.078995 803.039001 1.95)
(223.106995 803.155029 1.95)
(223.106003 803.200012 1.95)
(223.084 803.442017 1.95)
(223.074005 803.476013 1.95)
(223.061996 803.508972 1.95)
(212.063004 789.637024 1.95)
(237.292007 778.140991 1.95)
(238.231995 779.036011 1.95)
(238.524994 779.549011 1.95)
(238.684998 779.93103 1.95)
(239.332001 798.653015 1.95)
(246.766998 778.731995 1.95)
(34.066101 163.688004 1.95)
(28.015652 152.327362 1.95)
(25.804396 146.967728 1.95)
(-10.983684 117.534843 1.95)
(-12.204709 118.294418 1.95)
(-7.18929 117.172997 1.95)
(-12.2937 117.017998 1.95)
(-11.2165 119.289001 1.95)
(-25.823135 123.729118 1.95)
(-41.710701 131.662994 1.95)
(-17.4865 123.227997 1.95)
(-17.851101 123.127998 1.95)
(-11.082082 125.024818 1.95)
(-17.000401 123.492996 1.95)
(-17.3153 123.310997 1.95)
(-16.453501 123.996002 1.95)
(-16.5861 123.862999 1.95)
(-16.845699 123.602997 1.95)
(-16.243601 124.293999 1.95)
(-13.299986 124.467331 1.95)
(-10.9125 132.143997 1.95)
(53.997398 157.455994 1.95)
(54.146702 157.207993 1.95)
(-5.7526 141.412994 1.95)
(3.976695 155.473816 1.95)
(54.246399 156.953995 1.95)
(54.301399 156.699005 1.95)
(-5.79714 128.067001 1.95)
(9.37801 120.438004 1.95)
(-0.770113 125.537003 1.95)
(54.3344 156.423004 1.95)
(54.323502 156.147003 1.95)
(54.312698 156.003006 1.95)
(54.235001 155.748993 1.95)
(40.945866 127.95034 1.95)
(32.425201 110.693001 1.95)
(31.917 109.566498 1.95)
(33.529938 107.697914 1.95)
(42.853157 129.98497 1.95)
(32.371799 108.181755 1.95)
(32.328602 107.546997 1.95)
(32.778801 107.025002 1.95)
(33.077099 106.792999 1.95)
(33.414101 106.599998 1.95)
(46.749802 100.445999 1.95)
(47.004101 100.434998 1.95)
(47.513214 101.996552 1.95)
(47.651081 103.016045 1.95)
(48.721802 101.401001 1.95)
(10.5768 120.399002 1.95)
(46.865799 103.037003 1.95)
(11.2065 120.896004 1.95)
(11.3225 121.056999 1.95)
(22.855286 142.739304 1.95)
(34.413528 164.037659 1.95)
(34.785461 166.436279 1.95)
(34.027401 166.962997 1.95)
(26.904305 150.871384 1.95)
(35.005199 167.278 1.95)
(35.336601 167.300003 1.95)
(34.861198 164.393997 1.95)
(56.621399 157.781998 1.95)
(35.242298 164.598999 1.95)
(48.169498 138.679001 1.95)
(36.253502 164.903 1.95)
(36.678699 164.929993 1.95)
(34.375599 109.594002 1.95)
(34.535702 110.239998 1.95)
(71.813599 148.755997 1.95)
(65.972282 136.837875 1.95)
(71.929199 148.960007 1.95)
(51.82925 107.668999 1.95)
(72.073303 149.147995 1.95)
(63.184601 95.6231 1.95)
(63.134899 95.087303 1.95)
(63.1455 94.567596 1.95)
(65.576279 93.602531 1.95)
(122.747002 76.0783 1.95)
(126.277 76.382202 1.95)
(123.492996 78.061096 1.95)
(100.682968 87.416924 1.95)
(132.440506 92.676994 1.95)
(146.826996 117.658997 1.95)
(146.617004 120.586998 1.95)
(147.143005 117.973999 1.95)
(148.391006 120.945999 1.95)
(148.445908 118.442368 1.95)
(153.936996 118.669998 1.95)
(124.056 77.961502 1.95)
(123.768997 77.984001 1.95)
(34.927502 108.290001 1.95)
(107.836998 85.651497 1.95)
(35.093601 108.146004 1.95)
(35.287102 108.030998 1.95)
(107.654999 86.883301 1.95)
(94.832901 93.241898 1.95)
(46.070099 102.991997 1.95)
(46.302399 102.959 1.95)
(88.170601 93.1203 1.95)
(46.534599 102.970001 1.95)
(47.6777 103.627998 1.95)
(65.701424 140.167175 1.95)
(70.25795 150.382004 1.95)
(70.575996 150.921005 1.95)
(72.238701 149.313004 1.95)
(71.205299 151.550003 1.95)
(72.752197 149.606003 1.95)
(72.548103 152.009003 1.95)
(87.689903 145.451996 1.95)
(87.563301 145.679001 1.95)
(87.811699 144.291992 1.95)
(64.990799 95.263702 1.95)
(65.057198 95.506897 1.95)
(65.1343 95.760803 1.95)
(110.124001 107.428001 1.95)
(115.438004 102.488998 1.95)
(120.438004 113.056999 1.95)
(113.487999 115.167999 1.95)
(121.885002 115.565002 1.95)
(128.453995 129.028 1.95)
(106.588997 136.199005 1.95)
(113.594002 118.056999 1.95)
(102.385002 127.000999 1.95)
(107.838928 117.9627 1.95)
(65.002098 94.744698 1.95)
(65.239098 94.053703 1.95)
(65.134598 94.258598 1.95)
(65.361298 93.866402 1.95)
(82.60775 86.585205 1.95)
(82.375999 86.397697 1.95)
(82.817398 86.794899 1.95)
(89.435402 95.843498 1.95)
(91.535202 103.864998 1.95)
(65.0513 94.484703 1.95)
(105.744003 110.163002 1.95)
(81.332001 86.149101 1.95)
(82.2705 86.336304 1.95)
(82.044403 86.242798 1.95)
(81.696098 86.159698 1.95)
(107.223999 766.601013 1.95)
(107.322998 768.955017 1.95)
(106.461998 766.94397 1.95)
(106.660004 765.242004 1.95)
(106.555 766.596008 1.95)
(106.119003 765.452026 1.95)
(303.419006 680.393982 1.95)
(305.567993 679.494019 1.95)
(107.125 766.369019 1.95)
(106.560997 765.01001 1.95)
(105.792999 765.302979 1.95)
(104.512001 762.518982 1.95)
(302.959991 679.140991 1.95)
(305.053986 678.27301 1.95)
(415.782013 637.062012 1.95)
(415.871002 637.062012 1.95)
(-1.37229 113.487999 1.95)
(130.492004 50.544601 1.95)
(294.816986 244.612 1.95)
(299.346985 255.240997 1.95)
(311.324005 284.100006 1.95)
(304.846497 268.474487 1.95)
(274.087891 194.33963 1.95)
(280.917999 210.781998 1.95)
(280.790985 210.832001 1.95)
(248.992996 133.867004 1.95)
(218.931 90.679001 1.95)
(218.615005 89.877403 1.95)
(228.957001 85.591003 1.95)
(201.837997 96.699799 1.95)
(212.399994 93.341301 1.95)
(256.269836 151.424194 1.95)
(322.411011 328.641998 1.95)
(322.399994 328.675995 1.95)
(322.404999 328.636993 1.95)
(322.421997 328.609009 1.95)
(322.394012 328.670013 1.95)
(236.369995 178.386993 1.95)
(327.493011 326.697998 1.95)
(322.415985 328.55899 1.95)
(240.182007 188.431 1.95)
(240.044006 188.470001 1.95)
(267.372986 253.938004 1.95)
(266.174011 253.356995 1.95)
(267.023987 253.014999 1.95)
(313.576996 332.095001 1.95)
(267.433014 254.085999 1.95)
(267.052002 254.235992 1.95)
(313.533997 332.18399 1.95)
(313.549988 332.200012 1.95)
(313.53299 332.227997 1.95)
(322.399994 328.542999 1.95)
(322.411011 328.553986 1.95)
(238.330994 183.662994 1.95)
(322.355011 328.497986 1.95)
(322.338989 328.481995 1.95)
(322.25 328.437988 1.95)
(322.306 328.449005 1.95)
(322.278015 328.464996 1.95)
(321.880005 328.509003 1.95)
(321.825989 328.542999 1.95)
(321.769989 328.575989 1.95)
(320.525757 328.10257 1.95)
(314.351013 331.85199 1.95)
(321.571014 328.774994 1.95)
(321.559998 328.808014 1.95)
(314.394989 331.940002 1.95)
(314.362 331.907013 1.95)
(314.377991 331.878998 1.95)
(321.582001 328.786011 1.95)
(321.554993 328.846985 1.95)
(321.709015 329.001007 1.95)
(321.737 328.984985 1.95)
(321.742004 328.98999 1.95)
(321.660004 328.996002 1.95)
(321.687012 328.979004 1.95)
(321.575989 328.868011 1.95)
(321.559998 328.895996 1.95)
(307.263 286.006012 1.95)
(307.479004 285.911987 1.95)
(307.290985 285.459015 1.95)
(307.053986 285.575012 1.95)
(311.72699 288.701996 1.95)
(311.716003 289.221008 1.95)
(311.931 289.127014 1.95)
(311.501007 288.785004 1.95)
(309.075012 289.806 1.95)
(309.070007 290.332001 1.95)
(309.263 290.26001 1.95)
(308.871002 289.867004 1.95)
(309.937012 284.393005 1.95)
(309.937012 284.923004 1.95)
(310.147003 284.824005 1.95)
(309.743988 284.464996 1.95)
(308.561005 295.17099 1.95)
(308.52002 295.173492 1.95)
(308.583008 295.192993 1.95)
(308.584015 295.237 1.95)
(308.307007 295.138 1.95)
(308.201996 295.165009 1.95)
(308.164001 295.17099 1.95)
(308.070007 295.209015 1.95)
(308.605988 295.303009 1.95)
(308.380005 295.562988 1.95)
(308.470001 295.499512 1.95)
(308.317993 295.589996 1.95)
(308.01001 295.604828 1.95)
(308.164001 295.657013 1.95)
(308.201996 295.651001 1.95)
(307.787994 295.458008 1.95)
(307.964996 295.678986 1.95)
(307.770996 295.484985 1.95)
(307.777008 295.490997 1.95)
(307.939789 295.522644 1.95)
(307.760986 295.519012 1.95)
(307.765991 295.523987 1.95)
(307.777008 295.535004 1.95)
(307.915009 295.674011 1.95)
(307.777008 295.57901 1.95)
(305.015015 288.928009 1.95)
(304.997986 288.955994 1.95)
(305.015015 288.971985 1.95)
(305.020996 289.022003 1.95)
(305.832001 288.684998 1.95)
(305.102997 289.105011 1.95)
(305.075989 289.122009 1.95)
(305.131012 289.132996 1.95)
(305.158997 289.115997 1.95)
(305.821991 288.674011 1.95)
(305.704987 288.60199 1.95)
(305.842987 288.73999 1.95)
(305.855011 288.707001 1.95)
(305.838013 288.690002 1.95)
(305.838013 288.778992 1.95)
(305.855011 288.751007 1.95)
(305.859985 288.713013 1.95)
(305.832001 288.817993 1.95)
(305.826996 288.812012 1.95)
(310.777008 325.536987 1.95)
(310.76001 325.565002 1.95)
(310.776001 325.582001 1.95)
(310.787994 325.592987 1.95)
(311.48999 325.145996 1.95)
(310.89801 325.658997 1.95)
(311.5 325.156006 1.95)
(311.593994 325.25 1.95)
(310.997986 325.670013 1.95)
(311.610992 325.221985 1.95)
(311.600006 325.299988 1.95)
(311.610992 325.311005 1.95)
(311.595001 325.338989 1.95)
(311.617004 325.316986 1.95)
(311.605011 325.350006 1.95)
(318.997009 321.914001 1.95)
(318.864014 322.04599 1.95)
(318.825989 322.096008 1.95)
(318.830994 322.10199 1.95)
(318.815002 322.128998 1.95)
(318.798004 322.156006 1.95)
(318.80899 322.167999 1.95)
(318.820007 322.178986 1.95)
(318.80899 322.123993 1.95)
(319.483002 321.781006 1.95)
(319.53299 321.786011 1.95)
(318.820007 322.222992 1.95)
(318.859192 322.170715 1.95)
(319.28125 321.960602 1.95)
(319.544006 321.798004 1.95)
(319.638 321.891998 1.95)
(319.653992 321.864014 1.95)
(319.643005 321.94101 1.95)
(319.643005 321.897003 1.95)
(319.638 321.980011 1.95)
(319.660004 321.958008 1.95)
(319.653992 321.951996 1.95)
(319.040985 322.312012 1.95)
(319.058014 322.328003 1.95)
(319.128998 322.311005 1.95)
(319.544006 322.106995 1.95)
(319.322998 322.23999 1.95)