/*--------------------------------*- C++ -*----------------------------------*\
  =========                 |
  \\      /  F ield         | OpenFOAM: The Open Source CFD Toolbox
   \\    /   O peration     | Website:  https://openfoam.org
    \\  /    A nd           | Version:  7
     \\/     M anipulation  |
\*---------------------------------------------------------------------------*/
FoamFile
{
    version     2.0;
    format      ascii;
    class       featureEdgeMesh;
    location    "constant/triSurface";
    object      water_green.eMesh;
}
// * * * * * * * * * * * * * * * * * * * * * * * * * * * * * * * * * * * * * //


// points:

22483
(
(487.993378 500.928314 1.95)
(488.743774 502.53125 1.95)
(488.6409 501.71225 1.95)
(488.779541 501.926727 1.95)
(485.904846 497.675415 1.95)
(485.746918 497.317657 1.95)
(484.450317 496.335449 1.95)
(481.19455 495.125153 1.95)
(483.768188 495.844574 1.95)
(482.182648 495.102753 1.95)
(481.306641 494.874603 1.95)
(478.721924 495.717957 1.95)
(478.100739 496.534119 1.95)
(478.463867 498.748627 1.95)
(480.391968 494.911102 1.95)
(482.995544 495.461639 1.95)
(478.518738 496.251495 1.95)
(446.366211 532.306091 1.95)
(446.221191 532.080078 1.95)
(446.242218 532.073059 1.95)
(451.638794 531.77594 1.95)
(451.637238 531.437073 1.95)
(451.764069 531.493042 1.95)
(423.293243 598.98645 1.95)
(423.293549 598.986023 1.95)
(296.333099 796.707703 1.95)
(341.881134 773.00708 1.95)
(341.907715 773.746765 1.95)
(342.784271 772.795898 1.95)
(467.103729 590.138184 1.95)
(302.357574 580.556824 1.95)
(301.695587 579.529602 1.95)
(432.086182 501.979279 1.95)
(467.024384 589.726929 1.95)
(435.307281 501.533691 1.95)
(405.722626 550.279358 1.95)
(334.025177 549.886841 1.95)
(290.144012 460.777008 1.95)
(287.662994 477.300995 1.95)
(129.504959 104.158241 1.95)
(74.909447 106.833389 1.95)
(75.803093 103.858521 1.95)
(75.828903 104.395454 1.95)
(75.647476 103.834534 1.95)
(76.991806 106.400146 1.95)
(77.442406 107.057037 1.95)
(78.003815 107.469124 1.95)
(78.309616 107.387848 1.95)
(80.016541 93.769615 1.95)
(81.51432 93.26606 1.95)
(98.413872 136.774445 1.95)
(98.258179 136.808701 1.95)
(98.418716 137.125732 1.95)
(313.188995 285.390808 1.95)
(313.319641 285.300659 1.95)
(313.152161 285.612976 1.95)
(279.699951 203.991592 1.95)
(279.777588 203.939072 1.95)
(279.811707 203.913605 1.95)
(279.696167 203.977768 1.95)
(279.622986 203.986206 1.95)
(279.629791 203.62352 1.95)
(279.587952 203.625122 1.95)
(279.405823 204.098801 1.95)
(279.405853 204.098831 1.95)
(279.422363 204.05336 1.95)
(279.693878 203.699051 1.95)
(279.297882 203.995941 1.95)
(279.262512 204.048157 1.95)
(298.20224 250.569443 1.95)
(298.123688 250.492538 1.95)
(313.753876 285.376434 1.95)
(279.587494 203.62468 1.95)
(279.629791 203.623535 1.95)
(279.212067 204.043503 1.95)
(279.518372 203.890839 1.95)
(279.769592 203.69809 1.95)
(279.825073 203.691452 1.95)
(279.815155 203.684875 1.95)
(279.819458 203.687897 1.95)
(279.78064 203.688171 1.95)
(298.161591 250.52626 1.95)
(59.81102 156.885025 1.95)
(27.461308 175.085419 1.95)
(27.370701 174.845993 1.95)
(27.339102 175.332199 1.95)
(293.018646 352.762177 1.95)
(289.746063 350.724792 1.95)
(289.746185 350.72467 1.95)
(289.857758 350.597015 1.95)
(8.093654 126.511665 1.95)
(99.787903 215.952484 1.95)
(144.574615 105.594383 1.95)
(144.591354 105.591629 1.95)
(152.936874 119.080437 1.95)
(148.529007 118.431999 1.95)
(65.381897 116.77919 1.95)
(66.745766 119.663559 1.95)
(66.413925 118.959076 1.95)
(65.629311 117.307877 1.95)
(66.611053 120.814552 1.95)
(66.622383 120.831154 1.95)
(341.991974 767.381958 1.95)
(341.991974 767.381897 1.95)
(296.363678 796.871521 1.95)
(296.363586 796.871216 1.95)
(296.333191 796.707947 1.95)
(344.092957 767.077576 1.95)
(277.755188 175.457596 1.95)
(277.930023 175.887634 1.95)
(66.616776 120.822784 1.95)
(129.500595 104.162399 1.95)
(129.500839 104.150642 1.95)
(98.174057 136.805237 1.95)
(100.507126 139.406433 1.95)
(75.118057 107.282013 1.95)
(73.945038 106.605263 1.95)
(75.591728 103.922203 1.95)
(76.769409 103.819611 1.95)
(151.259125 120.741966 1.95)
(-101.784935 178.203674 1.95)
(31.682255 610.02948 1.95)
(31.68227 610.02948 1.95)
(31.226601 609.817017 1.95)
(190.472916 803.264587 1.95)
(102.657417 818.229614 1.95)
(102.872841 819.477417 1.95)
(98.994698 823.425354 1.95)
(53.617153 897.294006 1.95)
(26.770306 891.303894 1.95)
(26.770296 891.303894 1.95)
(-573.861877 620.691406 1.95)
(-573.879822 620.653748 1.95)
(-575.543091 616.527893 1.95)
(-575.543518 616.52948 1.95)
(-575.542786 616.529724 1.95)
(-575.542419 616.528137 1.95)
(-573.949951 611.495483 1.95)
(-570.007751 617.74469 1.95)
(-570.007019 617.744751 1.95)
(-570.006714 617.743164 1.95)
(-570.007385 617.743042 1.95)
(-567.556091 607.203491 1.95)
(-575.447693 624.690186 1.95)
(-575.447754 624.690186 1.95)
(-576.716675 622.883545 1.95)
(-576.369385 620.306091 1.95)
(-576.528503 621.025085 1.95)
(-576.61908 621.670837 1.95)
(-576.714661 623.87262 1.95)
(-576.633423 621.103271 1.95)
(-576.752197 622.916321 1.95)
(-576.828979 622.830505 1.95)
(-576.831299 622.842285 1.95)
(-570.432129 612.949829 1.95)
(-567.635437 595.324341 1.95)
(-567.600464 595.316101 1.95)
(-567.851685 595.341003 1.95)
(-569.485779 595.835266 1.95)
(-569.269165 596.938965 1.95)
(-566.432617 601.520935 1.95)
(-566.431824 601.521118 1.95)
(-566.431519 601.519531 1.95)
(-566.43219 601.519409 1.95)
(-571.403015 624.237244 1.95)
(-571.398743 624.279297 1.95)
(-576.494568 623.922485 1.95)
(-577.073364 621.626709 1.95)
(-575.748779 624.686035 1.95)
(-550.953247 389.003357 1.95)
(-555.335205 380.788574 1.95)
(-568.188477 596.035889 1.95)
(-568.10437 596.24939 1.95)
(-567.925354 596.010864 1.95)
(-571.696106 609.402832 1.95)
(-571.065369 607.299072 1.95)
(-571.155029 606.990173 1.95)
(-571.381592 607.618164 1.95)
(-574.104675 622.199402 1.95)
(-220.149521 908.13092 1.95)
(-465.747131 726.527222 1.95)
(-454.294434 726.569763 1.95)
(351.003815 764.041809 1.95)
(-345.335907 574.596863 1.95)
(-357.519714 583.310303 1.95)
(-288.189697 601.291565 1.95)
(-78.04734 857.204651 1.95)
(72.198784 745.937134 1.95)
(118.870903 886.464478 1.95)
(118.870956 886.464661 1.95)
(164.482788 900.392639 1.95)
(168.411896 898.421997 1.95)
(169.075912 898.063843 1.95)
(110.564133 836.475891 1.95)
(-377.12616 384.798676 1.95)
(-379.623505 381.106506 1.95)
(26.682343 891.408081 1.95)
(26.682339 891.40802 1.95)
(-30.241606 901.219543 1.95)
(-30.241549 901.21936 1.95)
(-52.808353 927.784912 1.95)
(-106.854042 813.44812 1.95)
(-213.863876 854.862061 1.95)
(-236.480103 848.88562 1.95)
(-207.145996 880.031006 1.95)
(-243.411301 827.704407 1.95)
(-241.216171 828.652893 1.95)
(-250.024612 811.925842 1.95)
(-289.421783 718.754272 1.95)
(-287.941956 692.060974 1.95)
(-257.06076 760.501587 1.95)
(260.024567 603.36377 1.95)
(237.563385 659.415161 1.95)
(172.377914 641.008423 1.95)
(153.625885 648.675293 1.95)
(-277.12616 734.987061 1.95)
(-275.937439 740.084717 1.95)
(-292.669495 665.678284 1.95)
(-294.82785 665.502991 1.95)
(-290.164368 678.580688 1.95)
(-282.677155 703.388489 1.95)
(-263.12204 747.496521 1.95)
(-245.301254 821.374634 1.95)
(-208.70224 901.362549 1.95)
(-207.951172 904.825195 1.95)
(-210.628464 904.827271 1.95)
(-210.611252 906.151917 1.95)
(-210.139389 906.421936 1.95)
(-208.786697 906.564087 1.95)
(-210.259323 906.381409 1.95)
(-259.07666 789.122131 1.95)
(-251.891388 771.272827 1.95)
(-226.369537 825.26062 1.95)
(-49.10183 927.832275 1.95)
(-51.125141 927.616211 1.95)
(-56.190235 928.046082 1.95)
(-56.102482 928.078308 1.95)
(-51.125263 927.616333 1.95)
(9.734982 981.104187 1.95)
(9.834686 980.945251 1.95)
(9.828718 980.9422 1.95)
(9.708833 981.034424 1.95)
(9.730603 981.070679 1.95)
(9.427635 979.911255 1.95)
(9.427637 979.911255 1.95)
(9.409246 979.892822 1.95)
(9.409261 979.892822 1.95)
(-200.466736 895.530151 1.95)
(-262.220978 804.397827 1.95)
(-237.745987 808.743469 1.95)
(-503.98703 721.61322 1.95)
(-243.224792 830.887878 1.95)
(-275.701813 745.058228 1.95)
(-218.846848 848.279785 1.95)
(-308.700012 688.079529 1.95)
(-307.837006 686.310974 1.95)
(-242.574326 851.879761 1.95)
(-406.02002 387.766327 1.95)
(-249.389328 818.333862 1.95)
(-298.33786 680.644653 1.95)
(-275.077698 746.252991 1.95)
(-250.579086 784.160034 1.95)
(-297.495789 698.049011 1.95)
(-211.938187 861.770386 1.95)
(-222.681458 835.312195 1.95)
(-256.2948 809.070374 1.95)
(107.377853 878.745056 1.95)
(-281.817108 735.425049 1.95)
(439.315582 561.358032 1.95)
(467.765991 623.429688 1.95)
(469.647308 613.758423 1.95)
(435.211304 697.230896 1.95)
(359.966156 712.265076 1.95)
(253.349548 787.392029 1.95)
(252.566971 787.759766 1.95)
(240.318283 795.356262 1.95)
(234.622742 795.609253 1.95)
(234.649384 797.127075 1.95)
(241.76268 791.390259 1.95)
(235.588364 787.166687 1.95)
(234.26564 785.096069 1.95)
(237.447021 778.273438 1.95)
(237.447006 778.273499 1.95)
(235.366974 786.226379 1.95)
(235.902664 789.917114 1.95)
(222.770172 783.496033 1.95)
(239.776138 790.467712 1.95)
(226.63916 787.947693 1.95)
(226.066833 789.222595 1.95)
(227.146988 771.850769 1.95)
(376.188171 720.893738 1.95)
(229.704575 787.931641 1.95)
(13.648784 124.675652 1.95)
(-14.742112 124.529076 1.95)
(-14.753016 124.514099 1.95)
(32.458984 108.415489 1.95)
(32.690098 108.536613 1.95)
(32.690067 108.535645 1.95)
(42.132736 104.033051 1.95)
(47.835918 101.970413 1.95)
(34.713242 166.184586 1.95)
(64.324989 94.092201 1.95)
(64.325005 94.092094 1.95)
(64.877846 93.665367 1.95)
(83.846756 87.791725 1.95)
(78.055176 87.441635 1.95)
(74.296227 89.14344 1.95)
(123.503006 77.645523 1.95)
(120.730804 78.037521 1.95)
(125.819687 78.612244 1.95)
(124.618073 77.745872 1.95)
(70.401749 150.643677 1.95)
(82.218178 146.836716 1.95)
(82.353798 146.917068 1.95)
(84.180504 87.290939 1.95)
(71.529984 90.494156 1.95)
(104.343758 90.36808 1.95)
(104.570801 89.589081 1.95)
(104.515907 89.916412 1.95)
(301.302124 289.125458 1.95)
(319.746002 326.769897 1.95)
(315.6586 323.065796 1.95)
(319.704865 326.776062 1.95)
(319.050781 329.492218 1.95)
(320.277069 328.954498 1.95)
(308.562317 295.201172 1.95)
(308.215027 295.38855 1.95)
(308.325562 295.341339 1.95)
(308.272705 295.468475 1.95)
(308.006958 295.453033 1.95)
(308.335571 295.469635 1.95)
(307.900848 295.493622 1.95)
(318.951599 322.121613 1.95)
(319.126923 322.028625 1.95)
(319.534332 321.984863 1.95)
(319.466431 322.02417 1.95)
(319.511658 322.122894 1.95)
(319.511658 322.122864 1.95)
(305.779449 311.984894 1.95)
(306.112671 311.865326 1.95)
(306.11264 311.865326 1.95)
(306.14093 311.983398 1.95)
(305.661957 312.147339 1.95)
(271.191193 207.156113 1.95)
(271.143677 207.188507 1.95)
(271.490051 207.370178 1.95)
(271.505646 207.398041 1.95)
(271.871826 207.053833 1.95)
(276.887543 220.552109 1.95)
(277.157928 220.29483 1.95)
(277.161987 220.283997 1.95)
(277.098999 220.479309 1.95)
(277.181091 220.569305 1.95)
(279.540497 227.479828 1.95)
(280.100159 227.068039 1.95)
(280.072357 227.111404 1.95)
(280.115692 227.19725 1.95)
(279.965485 227.290253 1.95)
(280.154114 227.209396 1.95)
(280.226868 227.196274 1.95)
(280.201782 227.196518 1.95)
(280.244507 227.168472 1.95)
(280.249207 227.168396 1.95)
(280.255493 227.163651 1.95)
(280.092773 227.309509 1.95)
(279.879211 227.394226 1.95)
(280.047791 227.238831 1.95)
(282.882812 233.614075 1.95)
(282.725403 233.781418 1.95)
(282.872192 233.645187 1.95)
(282.859985 233.647308 1.95)
(282.806793 233.734283 1.95)
(282.809265 233.740433 1.95)
(282.808289 233.751572 1.95)
(282.850708 233.811081 1.95)
(282.877655 233.834183 1.95)
(282.779175 233.863159 1.95)
(282.542938 233.995163 1.95)
(282.641357 234.011581 1.95)
(282.641388 234.011581 1.95)
(282.430939 234.080276 1.95)
(282.432892 234.080032 1.95)
(282.503143 233.826477 1.95)
(282.460419 233.96637 1.95)
(279.97052 250.237595 1.95)
(279.970306 250.237656 1.95)
(280.33783 250.176422 1.95)
(280.116638 250.213058 1.95)
(280.028137 250.489517 1.95)
(280.078918 250.321777 1.95)
(279.888458 250.498306 1.95)
(279.822754 250.477036 1.95)
(279.964844 250.385193 1.95)
(280.077087 250.487946 1.95)
(279.933136 250.466644 1.95)
(280.069855 250.475052 1.95)
(280.096039 250.465591 1.95)
(277.093384 243.706482 1.95)
(277.154266 243.672577 1.95)
(277.081909 243.762253 1.95)
(277.2854 243.754532 1.95)
(277.091248 243.874298 1.95)
(277.597473 243.596436 1.95)
(277.578857 243.621765 1.95)
(277.094849 243.871887 1.95)
(277.136902 243.874176 1.95)
(277.125671 243.813141 1.95)
(277.295441 243.678955 1.95)
(277.627319 243.673996 1.95)
(277.618744 243.809021 1.95)
(277.307526 243.981354 1.95)
(277.206604 244.067276 1.95)
(274.235596 237.138153 1.95)
(274.327423 237.101257 1.95)
(274.695618 236.963074 1.95)
(274.753357 236.987701 1.95)
(274.734467 236.969543 1.95)
(290.895294 253.562943 1.95)
(290.886047 253.547821 1.95)
(291.188477 253.526932 1.95)
(290.908508 253.577744 1.95)
(290.872375 253.631775 1.95)
(291.2034 253.600342 1.95)
(291.173706 253.588837 1.95)
(290.860535 253.636261 1.95)
(290.609772 253.83844 1.95)
(290.912323 253.710464 1.95)
(291.021179 253.725723 1.95)
(290.73468 253.814972 1.95)
(290.531708 253.925278 1.95)
(290.908417 253.793839 1.95)
(290.498077 253.936035 1.95)
(290.491394 253.933701 1.95)
(290.520569 253.915024 1.95)
(290.674072 253.941803 1.95)
(290.547424 253.953629 1.95)
(291.00174 253.881256 1.95)
(291.005798 253.800034 1.95)
(290.874329 253.917892 1.95)
(291.11853 253.665298 1.95)
(290.687927 253.97467 1.95)
(290.706909 253.984238 1.95)
(290.685333 254.033325 1.95)
(51.880928 158.938766 1.95)
(42.50906 162.863586 1.95)
(-326.916412 677.553711 1.95)
(-240.776001 567.249207 1.95)
(333.562622 766.877563 1.95)
(243.080048 776.269836 1.95)
(238.63031 774.370178 1.95)
(280.183594 769.965942 1.95)
(414.156433 524.250061 1.95)
(340.358948 761.279419 1.95)
(338.5961 760.404419 1.95)
(254.200684 200.422653 1.95)
(297.04538 282.908478 1.95)
(295.577026 280.262024 1.95)
(-245.320511 802.023499 1.95)
(-242.341507 569.005066 1.95)
(-242.697021 568.936401 1.95)
(297.999939 767.01532 1.95)
(438.838135 561.466858 1.95)
(292.409943 278.932495 1.95)
(225.346863 783.714539 1.95)
(293.808838 276.095245 1.95)
(188.988998 25.381599 1.95)
(185.475998 29.6462 1.95)
(197.181 67.294098 1.95)
(199.186005 68.415604 1.95)
(199.330002 68.780602 1.95)
(182.740997 36.060299 1.95)
(200.214005 68.647903 1.95)
(200.473999 68.642502 1.95)
(181.421005 81.0998 1.95)
(189.917007 23.8797 1.95)
(197.414246 73.291222 1.95)
(204.108002 71.039597 1.95)
(202.020004 75.801804 1.95)
(189.988007 26.072399 1.95)
(200.429001 68.554001 1.95)
(460.436676 525.534241 1.95)
(447.562988 523.002991 1.95)
(436.723999 505.402008 1.95)
(441.696014 488.763 1.95)
(438.531006 483.829987 1.95)
(440.647003 488.950989 1.95)
(435.403992 505.540009 1.95)
(421.338989 496.800995 1.95)
(467.571991 490.332001 1.95)
(467.716003 491.625 1.95)
(463.997986 490.425995 1.95)
(458.562012 492.591003 1.95)
(453.475006 491.171997 1.95)
(457.704987 494.960999 1.95)
(457.81601 496.795013 1.95)
(453.933014 503.165009 1.95)
(451.375 497.60199 1.95)
(452.380005 521.322998 1.95)
(454.760986 502.359009 1.95)
(453.860992 503.845001 1.95)
(489.553955 506.424774 1.95)
(492.107086 508.424774 1.95)
(485.599426 493.806396 1.95)
(483.709167 505.639374 1.95)
(469.779541 487.581726 1.95)
(488.371002 504.191986 1.95)
(488.834991 504.834015 1.95)
(489.536987 505.005005 1.95)
(485.542999 498.22699 1.95)
(477.743011 496.65799 1.95)
(478.796997 499.523987 1.95)
(469.539001 496.321014 1.95)
(468.416992 496.877991 1.95)
(469.069 496.160004 1.95)
(468.593994 496.347992 1.95)
(487.134003 497.519012 1.95)
(479.39856 483.042847 1.95)
(477.655762 483.662018 1.95)
(475.389893 484.204651 1.95)
(474.421997 478.576996 1.95)
(474.196014 478.128998 1.95)
(444.77301 484.503998 1.95)
(444.834015 485.006989 1.95)
(499.424988 518.560974 1.95)
(488.84436 520.676514 1.95)
(490.626556 517.531433 1.95)
(488.626831 515.559631 1.95)
(487.90329 508.687805 1.95)
(481.859375 517.579163 1.95)
(457.533997 527.671021 1.95)
(457.871002 527.211975 1.95)
(459.368988 532.289001 1.95)
(486.996002 520.22998 1.95)
(472.593994 525.715027 1.95)
(475.067993 522.223999 1.95)
(475.184998 521.721008 1.95)
(483.200989 517.362976 1.95)
(483.272003 516.859985 1.95)
(476.377991 516.638977 1.95)
(475.984985 516.114014 1.95)
(439.165985 529.853027 1.95)
(436.773987 528.565002 1.95)
(443.524994 523.427979 1.95)
(437.802002 525.041016 1.95)
(438.371002 524.947021 1.95)
(439.183014 523.815002 1.95)
(436.957001 518.494995 1.95)
(436.509003 518.445007 1.95)
(436.033997 518.677002 1.95)
(468.91748 520.160522 1.95)
(443.972992 541.508972 1.95)
(442.177002 537.28302 1.95)
(446.219818 535.614197 1.95)
(451.574585 535.560913 1.95)
(452.678986 537.973999 1.95)
(454.14801 537.366028 1.95)
(456.165009 536.51001 1.95)
(449.95636 530.99707 1.95)
(429.052002 503.872009 1.95)
(428.56601 504.005005 1.95)
(429.266998 503.601013 1.95)
(427.106995 501.529999 1.95)
(427.604004 500.744995 1.95)
(425.07901 492.785004 1.95)
(436.679993 487.548004 1.95)
(436.955994 487.955994 1.95)
(436.967987 488.277008 1.95)
(485.329742 483.976257 1.95)
(477.825012 467.307007 1.95)
(479.040741 488.921051 1.95)
(421.217987 491.088989 1.95)
(447.089874 530.614136 1.95)
(457.092987 532.487976 1.95)
(455.929749 529.104004 1.95)
(456.778992 530.958984 1.95)
(451.855499 526.565979 1.95)
(440.127991 532.625977 1.95)
(446.321136 525.262817 1.95)
(448.010742 525.471985 1.95)
(444.795013 525.671021 1.95)
(450.226013 532.781006 1.95)
(452.18335 532.253967 1.95)
(335.757996 427.505005 1.95)
(423.544891 599.104248 1.95)
(422.975006 599.24353 1.95)
(426.516846 599.146851 1.95)
(431.398987 597.570007 1.95)
(423.023987 599.005981 1.95)
(423.013 599.702026 1.95)
(422.997009 599.552979 1.95)
(368.24704 502.624573 1.95)
(372.286163 512.5755 1.95)
(436.343994 595.530029 1.95)
(440.453003 591.333008 1.95)
(384.519989 549.187988 1.95)
(383.160645 536.672729 1.95)
(382.360962 533.908447 1.95)
(421.091003 546.380981 1.95)
(418.510986 547.469971 1.95)
(410.516998 545.885254 1.95)
(286.674988 820.937988 1.95)
(276.040009 815.916016 1.95)
(274.919006 812.541016 1.95)
(235.403 828.93103 1.95)
(233.602997 824.83197 1.95)
(292.822998 801.189026 1.95)
(293.20401 800.950012 1.95)
(293.303986 800.872986 1.95)
(293.424988 800.773987 1.95)
(293.519012 800.690979 1.95)
(293.673004 800.536011 1.95)
(293.712006 800.487 1.95)
(293.734985 800.465027 1.95)
(294.059998 800.039001 1.95)
(294.485992 799.007019 1.95)
(294.507996 798.895996 1.95)
(294.529999 798.784973 1.95)
(310.904968 789.484802 1.95)
(294.557007 798.504028 1.95)
(294.562988 798.111023 1.95)
(294.546997 798.184021 1.95)
(294.546997 798.007019 1.95)
(298.954407 795.238464 1.95)
(294.485992 797.679993 1.95)
(293.839996 796.239014 1.95)
(293.977997 796.421021 1.95)
(293.855988 796.299011 1.95)
(233.813004 824.909973 1.95)
(336.23587 767.269104 1.95)
(331.691986 768.861023 1.95)
(337.647003 766.374023 1.95)
(340.381012 766.723022 1.95)
(345.763275 771.279541 1.95)
(347.362122 771.20166 1.95)
(364.903015 760.442017 1.95)
(354.954407 766.05719 1.95)
(352.415588 763.530334 1.95)
(351.918884 764.006042 1.95)
(351.833801 763.974854 1.95)
(341.248993 766.971008 1.95)
(341.209991 766.932007 1.95)
(348.196838 765.150269 1.95)
(342.320007 767.689026 1.95)
(342.243011 767.612 1.95)
(348.358521 766.07605 1.95)
(292.838989 795.414978 1.95)
(292.431 795.228027 1.95)
(292.165985 795.138977 1.95)
(291.092987 795.039978 1.95)
(341.276001 772.965027 1.95)
(341.734985 772.716003 1.95)
(342.640991 771.854004 1.95)
(342.729004 771.721985 1.95)
(342.97699 771.263 1.95)
(343.177002 770.622986 1.95)
(343.237 769.710999 1.95)
(343.109985 769.054016 1.95)
(342.82901 768.374023 1.95)
(342.790009 768.335022 1.95)
(342.773987 768.275024 1.95)
(342.882996 768.473999 1.95)
(342.717987 768.174988 1.95)
(342.618988 768.031006 1.95)
(344.146179 767.688354 1.95)
(451.97699 710.822021 1.95)
(465.096985 656.059998 1.95)
(464.337463 657.513062 1.95)
(462.888 657.916016 1.95)
(462.832001 657.906006 1.95)
(463.114014 658.054993 1.95)
(463.080994 658.021973 1.95)
(463.031006 658.015991 1.95)
(463.003998 657.987976 1.95)
(466.125 584.101013 1.95)
(466.252014 584.072998 1.95)
(462.334991 585.726013 1.95)
(466.792999 584.30603 1.95)
(466.859985 584.372009 1.95)
(461.838013 593.403992 1.95)
(478.04599 593.747009 1.95)
(478.074005 593.773987 1.95)
(478.040985 593.697021 1.95)
(477.985992 593.642029 1.95)
(468.390015 588.906982 1.95)
(472.014008 600.973022 1.95)
(467.423004 604.645996 1.95)
(477.653992 593.442993 1.95)
(467.300995 590.911987 1.95)
(467.622009 590.614014 1.95)
(462.932007 593.260986 1.95)
(477.459991 593.426025 1.95)
(477.503998 593.426025 1.95)
(476.328003 593.973022 1.95)
(465.38501 599.159973 1.95)
(466.832001 604.054993 1.95)
(445.049011 629.250977 1.95)
(438.161011 611.953979 1.95)
(441.619598 610.709839 1.95)
(454.010986 604.711975 1.95)
(445.083008 607.80603 1.95)
(440.966309 612.083923 1.95)
(438.369995 611.523987 1.95)
(378.863007 619.544983 1.95)
(379.382996 618.252014 1.95)
(379.774994 619.174988 1.95)
(378.471985 618.622009 1.95)
(380.819 624.195984 1.95)
(381.338013 622.903015 1.95)
(381.730011 623.827026 1.95)
(380.425995 623.273987 1.95)
(408.142212 547.569641 1.95)
(406.52301 550.817017 1.95)
(403.902252 551.919495 1.95)
(390.279297 540.620117 1.95)
(276.61499 524.676025 1.95)
(269.290009 527.737 1.95)
(259.743011 504.667999 1.95)
(259.842987 501.320007 1.95)
(300.71701 580.289978 1.95)
(306.088989 581.662476 1.95)
(298.026001 560.31897 1.95)
(293.789001 562.843994 1.95)
(294.243011 562.015991 1.95)
(294.657013 561.677979 1.95)
(294.011749 562.315002 1.95)
(294.446991 561.820984 1.95)
(268.167999 524.184998 1.95)
(268.321991 524.560974 1.95)
(268.963989 524.27301 1.95)
(268.813995 523.903015 1.95)
(266.046997 517.245972 1.95)
(265.593994 517.89801 1.95)
(266.201996 517.622009 1.95)
(262.648987 510.886993 1.95)
(262.821014 511.235992 1.95)
(263.268005 510.622009 1.95)
(252.667007 495.645996 1.95)
(250.727997 500.381012 1.95)
(249.373993 496.993988 1.95)
(254.102997 498.983002 1.95)
(382.730011 628.802979 1.95)
(382.348999 627.848022 1.95)
(383.26001 627.478027 1.95)
(383.670013 628.416016 1.95)
(442.69101 484.233002 1.95)
(431.215698 503.66568 1.95)
(431.143494 503.798126 1.95)
(431.32254 503.468994 1.95)
(431.415924 503.334137 1.95)
(432.419983 503.318695 1.95)
(431.661316 503.192108 1.95)
(431.517273 500.113281 1.95)
(428.852325 501.810089 1.95)
(429.401306 499.293304 1.95)
(425.397919 501.222717 1.95)
(422.300293 497.025085 1.95)
(434.183289 491.249329 1.95)
(437.248383 489.078461 1.95)
(433.435364 496.901398 1.95)
(423.445007 598.453003 1.95)
(447.630005 600.010986 1.95)
(376.885986 521.445007 1.95)
(357.700012 376.128998 1.95)
(341.923004 415.32901 1.95)
(337.117004 416.709991 1.95)
(340.430176 407.782501 1.95)
(325.427002 395.076996 1.95)
(322.454987 399.928009 1.95)
(316.881012 386.487 1.95)
(318.256012 386.049988 1.95)
(439.817993 508.230499 1.95)
(465.932007 512.778015 1.95)
(457.837067 502.053101 1.95)
(300.518005 396.109985 1.95)
(300.363007 395.867004 1.95)
(300.57901 395.729004 1.95)
(310.279999 419.085999 1.95)
(286.746002 418.798004 1.95)
(285.459015 420.074005 1.95)
(285.906006 421.582001 1.95)
(288.299011 420.881012 1.95)
(287.96701 419.13501 1.95)
(285.718994 419.096985 1.95)
(264.605011 486.946014 1.95)
(257.539001 497.514008 1.95)
(254.744003 490.785004 1.95)
(261.815002 478.588013 1.95)
(261.024994 478.283997 1.95)
(261.593994 478.057007 1.95)
(272.691986 491.187988 1.95)
(266.665009 476.588013 1.95)
(458.335999 546.59198 1.95)
(459.993011 550.414001 1.95)
(467.223999 567.721985 1.95)
(465.593994 563.882019 1.95)
(512.103027 549.138 1.95)
(510.540009 545.320984 1.95)
(473.886993 584.062988 1.95)
(472.798004 581.294983 1.95)
(517.737976 562.682983 1.95)
(518.958984 565.494995 1.95)
(380.221985 560.445984 1.95)
(380.001007 559.473999 1.95)
(380.377014 560.380005 1.95)
(332.105011 581.846985 1.95)
(332.65799 583.195007 1.95)
(464.86499 599.700989 1.95)
(465.411987 599.143982 1.95)
(462.95401 593.239014 1.95)
(440.066986 542.685974 1.95)
(477.742004 593.442993 1.95)
(466.345001 584.078979 1.95)
(466.605988 584.161987 1.95)
(466.472992 584.117981 1.95)
(466.571991 584.129028 1.95)
(477.627014 593.414978 1.95)
(466.661011 584.172974 1.95)
(477.549011 593.426025 1.95)
(468.367004 589.19397 1.95)
(467.891998 590.265991 1.95)
(448.076996 561.213989 1.95)
(430.644928 502.570709 1.95)
(430.830872 504.294678 1.95)
(422.714996 505.756012 1.95)
(434.05545 501.099548 1.95)
(433.052826 502.925415 1.95)
(437.701996 506.335999 1.95)
(435.439087 497.938782 1.95)
(439.923004 485.355011 1.95)
(434.561584 505.937622 1.95)
(453.783997 604 1.95)
(453.882996 604.276001 1.95)
(438.187988 611.78302 1.95)
(448.281006 624.130005 1.95)
(441.414001 634.763977 1.95)
(434.07901 616.732971 1.95)
(434.05484 616.545166 1.95)
(435.077393 614.964355 1.95)
(435.26001 614.997986 1.95)
(434.666992 615.11145 1.95)
(436.892273 497.995422 1.95)
(436.47937 497.348816 1.95)
(433.000305 499.364624 1.95)
(433.153137 498.328613 1.95)
(432.683319 500.161377 1.95)
(433.2901 500.083679 1.95)
(431.154907 503.559204 1.95)
(431.204163 503.609497 1.95)
(431.210236 503.694916 1.95)
(393.331665 536.810791 1.95)
(430.548004 595.481018 1.95)
(423.075012 598.877991 1.95)
(423.098999 599.854004 1.95)
(426.830994 608.911011 1.95)
(436.492004 581.934998 1.95)
(433.442993 583.21698 1.95)
(401.329712 552.578613 1.95)
(400.044006 552.11499 1.95)
(402.195496 552.499512 1.95)
(399.451996 551.523987 1.95)
(282.332001 522.528015 1.95)
(258.522003 501.722992 1.95)
(285.287994 521.682007 1.95)
(263.440002 510.971008 1.95)
(265.416992 517.544006 1.95)
(372.796997 566.500977 1.95)
(401.869019 552.571472 1.95)
(503.358002 527.929993 1.95)
(504.933014 531.802979 1.95)
(466.440002 584.085022 1.95)
(466.893005 584.405029 1.95)
(479.774994 597.862 1.95)
(477.537994 593.414978 1.95)
(477.493988 593.414978 1.95)
(477.421997 593.432007 1.95)
(477.454987 593.419983 1.95)
(438.154999 612.015991 1.95)
(451.760986 627.257019 1.95)
(480.791992 508.015015 1.95)
(483.493011 508.197998 1.95)
(482.924011 508.95401 1.95)
(499.105011 518.41803 1.95)
(499.403015 517.698975 1.95)
(473.416992 509.964996 1.95)
(472.792999 508.015015 1.95)
(470.582886 511.826874 1.95)
(469.846741 513.687256 1.95)
(486.841003 519.765015 1.95)
(443.938995 541.476013 1.95)
(456.235992 536.359985 1.95)
(439.906006 531.034973 1.95)
(526.090027 559.104004 1.95)
(527.742004 558.413025 1.95)
(526.244995 565.932007 1.95)
(522.968994 556.689026 1.95)
(522.953003 556.672974 1.95)
(524.041016 556.213989 1.95)
(511.550995 526.046021 1.95)
(512.169006 525.781006 1.95)
(523.018982 556.783997 1.95)
(522.963989 556.729004 1.95)
(523.046997 556.85498 1.95)
(523.013977 556.822021 1.95)
(523.075012 556.927979 1.95)
(523.041992 556.893982 1.95)
(523.10199 556.999023 1.95)
(523.075012 556.971985 1.95)
(523.112976 557.054016 1.95)
(523.096008 557.038025 1.95)
(523.140991 557.125977 1.95)
(523.107971 557.093018 1.95)
(523.145996 557.176025 1.95)
(523.13501 557.164001 1.95)
(523.156982 557.231018 1.95)
(523.140991 557.215027 1.95)
(523.163025 557.281006 1.95)
(523.151978 557.268982 1.95)
(523.163025 557.369019 1.95)
(523.145996 557.353027 1.95)
(523.169006 557.419006 1.95)
(523.151978 557.401978 1.95)
(523.169006 557.463013 1.95)
(523.156982 557.452026 1.95)
(523.163025 557.546021 1.95)
(523.151978 557.534973 1.95)
(523.156982 557.629028 1.95)
(523.140991 557.612 1.95)
(523.145996 557.705994 1.95)
(523.13501 557.695007 1.95)
(523.130005 557.778015 1.95)
(523.119019 557.767029 1.95)
(523.10199 557.882996 1.95)
(523.091003 557.872009 1.95)
(523.06897 557.982971 1.95)
(523.057983 557.971008 1.95)
(523.013977 558.104004 1.95)
(523.007996 558.098999 1.95)
(522.268005 560.231018 1.95)
(522.252014 560.213989 1.95)
(522.301025 560.75 1.95)
(522.27301 560.590027 1.95)
(522.252014 560.567993 1.95)
(522.273987 560.723022 1.95)
(522.328979 560.909973 1.95)
(522.301025 560.882996 1.95)
(522.356018 561.026001 1.95)
(522.333984 561.004028 1.95)
(522.362 561.075989 1.95)
(474.268005 588.466003 1.95)
(474.251007 588.448975 1.95)
(474.5 588.343994 1.95)
(474.084991 588.460022 1.95)
(474.058014 588.432007 1.95)
(474.660004 587.88501 1.95)
(474.675995 587.901978 1.95)
(473.920013 588.382019 1.95)
(473.968994 588.432007 1.95)
(474.660004 587.796997 1.95)
(473.869995 588.377014 1.95)
(473.70401 588.166992 1.95)
(473.709015 588.21698 1.95)
(473.675995 588.138977 1.95)
(473.251007 584.44397 1.95)
(469.588989 577.820007 1.95)
(470.936005 577.664978 1.95)
(470.048584 577.348022 1.95)
(508.247009 574.362 1.95)
(508.506989 574.577026 1.95)
(508.639008 574.620972 1.95)
(506.68399 570.632996 1.95)
(508.463013 574.577026 1.95)
(508.572998 574.599976 1.95)
(470.593994 577.367004 1.95)
(508.528992 574.598999 1.95)
(470.559998 577.333984 1.95)
(470.648987 577.377991 1.95)
(508.595001 574.620972 1.95)
(470.925995 577.609985 1.95)
(513.444519 570.984985 1.95)
(472.554993 581.538025 1.95)
(513.236023 564.544983 1.95)
(511.634003 560.64502 1.95)
(511.628998 560.596008 1.95)
(512.109009 559.794006 1.95)
(513.866028 559.341003 1.95)
(513.958984 559.390991 1.95)
(513.83197 559.307983 1.95)
(514.202026 559.633972 1.95)
(514.241028 559.672974 1.95)
(514.190979 559.578979 1.95)
(513.921021 559.353027 1.95)
(514.013977 559.401978 1.95)
(508.656006 574.638 1.95)
(456.225006 603.304016 1.95)
(453.390991 596.934021 1.95)
(451.209015 597.846008 1.95)
(461.028015 555.264038 1.95)
(460.417999 555.435974 1.95)
(460.390991 555.40802 1.95)
(460.225006 555.375 1.95)
(459.932007 555.08197 1.95)
(459.942993 555.137024 1.95)
(459.894012 555.044006 1.95)
(461.230988 555.010986 1.95)
(458.065002 546.807007 1.95)
(455.678986 544.950989 1.95)
(459.666992 550.663025 1.95)
(455.639008 544.646973 1.95)
(504.484985 536.879028 1.95)
(502.574005 532.758972 1.95)
(456.661011 544.03302 1.95)
(504.424988 536.862976 1.95)
(456.131531 544.000366 1.95)
(504.523987 536.91803 1.95)
(505.523987 536.460022 1.95)
(505.127747 536.914246 1.95)
(505.535004 535.984985 1.95)
(456.628998 544.000977 1.95)
(456.71701 544.044006 1.95)
(456.75 544.078003 1.95)
(500.651001 524.338989 1.95)